
     RDKit          3D

 57 59  0  0  0  0  0  0  0  0999 V2000
   52.9930   81.5680   23.9300 C   0  0  0  0  0  0  0  0  0  0  0  0
   53.2810   80.3560   24.7390 C   0  0  0  0  0  0  0  0  0  0  0  0
   52.9350   79.1410   24.3660 N   0  0  0  0  0  0  0  0  0  0  0  0
   53.3960   78.3050   25.3370 C   0  0  0  0  0  0  0  0  0  0  0  0
   54.0360   78.9980   26.3450 C   0  0  0  0  0  0  0  0  0  0  0  0
   54.6870   78.4780   27.5400 C   0  0  0  0  0  0  0  0  0  0  0  0
   54.0360   77.6270   28.4020 C   0  0  0  0  0  0  0  0  0  0  0  0
   54.7780   77.2030   29.4720 C   0  0  0  0  0  0  0  0  0  0  0  0
   56.0540   77.5710   29.6810 N   0  0  0  0  0  0  0  0  0  0  0  0
   56.6190   78.3890   28.7840 C   0  0  0  0  0  0  0  0  0  0  0  0
   57.9390   78.8180   28.8960 N   0  0  0  0  0  0  0  0  0  0  0  0
   58.5670   79.8580   29.5880 C   0  0  0  0  0  0  0  0  0  0  0  0
   59.2900   80.8850   28.9690 C   0  0  0  0  0  0  0  0  0  0  0  0
   59.9120   81.8940   29.7140 C   0  0  0  0  0  0  0  0  0  0  0  0
   59.8330   81.8700   31.1050 C   0  0  0  0  0  0  0  0  0  0  0  0
   60.6000   83.1540   32.0700 S   0  0  0  0  0  0  0  0  0  0  0  0
   60.1540   82.9520   33.4370 O   0  0  0  0  0  0  0  0  0  0  0  0
   60.3580   84.4170   31.4060 O   0  0  0  0  0  0  0  0  0  0  0  0
   62.1630   82.7930   32.0260 O   0  0  0  0  0  0  0  0  0  0  0  0
   62.9640   82.2150   33.2890 S   0  0  0  0  0  0  0  0  0  0  0  0
   62.4990   80.8780   33.5840 O   0  0  0  0  0  0  0  0  0  0  0  0
   63.0470   83.2480   34.3010 O   0  0  0  0  0  0  0  0  0  0  0  0
   64.5780   82.0920   32.4980 C   0  0  0  0  0  0  0  0  0  0  0  0
   64.4100   81.7410   31.0230 C   0  0  0  0  0  0  0  0  0  0  0  0
   65.3840   83.3770   32.6590 C   0  0  0  0  0  0  0  0  0  0  0  0
   59.1190   80.8610   31.7520 C   0  0  0  0  0  0  0  0  0  0  0  0
   58.5000   79.8630   30.9930 C   0  0  0  0  0  0  0  0  0  0  0  0
   55.9660   78.8650   27.7110 N   0  0  0  0  0  0  0  0  0  0  0  0
   53.9210   80.3320   25.9670 N   0  0  0  0  0  0  0  0  0  0  0  0
   54.3760   81.4750   26.7600 C   0  0  0  0  0  0  0  0  0  0  0  0
   53.2760   82.4810   27.1100 C   0  0  0  0  0  0  0  0  0  0  0  0
   55.5900   82.1610   26.1320 C   0  0  0  0  0  0  0  0  0  0  0  0
   52.7913   82.4167   24.6001 H   0  0  0  0  0  0  0  0  0  0  0  0
   53.8610   81.8001   23.2954 H   0  0  0  0  0  0  0  0  0  0  0  0
   52.1134   81.3848   23.2954 H   0  0  0  0  0  0  0  0  0  0  0  0
   53.2735   77.2120   25.3203 H   0  0  0  0  0  0  0  0  0  0  0  0
   52.9947   77.3099   28.2435 H   0  0  0  0  0  0  0  0  0  0  0  0
   54.3052   76.5258   30.1986 H   0  0  0  0  0  0  0  0  0  0  0  0
   58.5350   78.1350   28.4530 H   0  0  0  0  0  0  0  0  0  0  0  0
   59.3711   80.8993   27.8721 H   0  0  0  0  0  0  0  0  0  0  0  0
   60.4596   82.7006   29.2045 H   0  0  0  0  0  0  0  0  0  0  0  0
   65.1414   81.2892   32.9962 H   0  0  0  0  0  0  0  0  0  0  0  0
   63.9367   80.7521   30.9330 H   0  0  0  0  0  0  0  0  0  0  0  0
   63.7760   82.4966   30.5362 H   0  0  0  0  0  0  0  0  0  0  0  0
   65.3962   81.7211   30.5362 H   0  0  0  0  0  0  0  0  0  0  0  0
   65.5196   83.5931   33.7290 H   0  0  0  0  0  0  0  0  0  0  0  0
   66.3677   83.2550   32.1821 H   0  0  0  0  0  0  0  0  0  0  0  0
   64.8460   84.2095   32.1821 H   0  0  0  0  0  0  0  0  0  0  0  0
   59.0437   80.8507   32.8494 H   0  0  0  0  0  0  0  0  0  0  0  0
   57.9474   79.0627   31.5070 H   0  0  0  0  0  0  0  0  0  0  0  0
   54.6890   81.0434   27.7222 H   0  0  0  0  0  0  0  0  0  0  0  0
   53.1875   82.5619   28.2034 H   0  0  0  0  0  0  0  0  0  0  0  0
   53.5313   83.4647   26.6890 H   0  0  0  0  0  0  0  0  0  0  0  0
   52.3190   82.1391   26.6890 H   0  0  0  0  0  0  0  0  0  0  0  0
   56.2518   82.5350   26.9270 H   0  0  0  0  0  0  0  0  0  0  0  0
   56.1375   81.4388   25.5086 H   0  0  0  0  0  0  0  0  0  0  0  0
   55.2538   83.0027   25.5086 H   0  0  0  0  0  0  0  0  0  0  0  0
  1  2  1  0
  2  3  2  0
  3  4  1  0
  4  5  2  0
  5  6  1  0
  6  7  1  0
  7  8  2  0
  8  9  1  0
  9 10  2  0
 10 11  1  0
 11 12  1  0
 12 13  1  0
 13 14  2  0
 14 15  1  0
 15 16  1  0
 16 17  2  0
 16 18  2  0
 16 19  1  0
 19 20  1  0
 20 21  2  0
 20 22  2  0
 20 23  1  0
 23 24  1  0
 23 25  1  0
 15 26  2  0
 26 27  1  0
 10 28  1  0
  5 29  1  0
 29 30  1  0
 30 31  1  0
 30 32  1  0
 29  2  1  0
 28  6  2  0
 27 12  2  0
  1 33  1  0
  1 34  1  0
  1 35  1  0
  4 36  1  0
  7 37  1  0
  8 38  1  0
 11 39  1  0
 13 40  1  0
 14 41  1  0
 23 42  1  0
 24 43  1  0
 24 44  1  0
 24 45  1  0
 25 46  1  0
 25 47  1  0
 25 48  1  0
 26 49  1  0
 27 50  1  0
 30 51  1  0
 31 52  1  0
 31 53  1  0
 31 54  1  0
 32 55  1  0
 32 56  1  0
 32 57  1  0
M  END
>  <meeko>  (1) 
{"is_sidechain": false}

>  <smiles>  (1) 
Cc1ncc(-c2ccnc(Nc3ccc(S(=O)(=O)OS(=O)(=O)C(C)C)cc3)n2)n1C(C)C

>  <vina_score>  (1) 
-8.786

>  <job_id>  (1) 
00c5fa609d85309b

$$$$

     RDKit          3D

 41 42  0  0  0  0  0  0  0  0999 V2000
   52.9340   81.7300   23.4700 C   0  0  0  0  0  0  0  0  0  0  0  0
   53.5600   81.5760   24.8550 C   0  0  0  0  0  0  0  0  0  0  0  0
   52.9300   82.5580   25.8370 C   0  0  0  0  0  0  0  0  0  0  0  0
   53.4020   79.8720   25.4080 S   0  0  0  0  0  0  0  0  0  0  0  0
   53.6430   78.9980   24.2750 O   0  0  0  0  0  0  0  0  0  0  0  0
   52.1850   79.7480   26.1880 O   0  0  0  0  0  0  0  0  0  0  0  0
   54.7740   79.6380   26.5160 C   0  0  0  0  0  0  0  0  0  0  0  0
   54.6790   78.6810   27.5280 C   0  0  0  0  0  0  0  0  0  0  0  0
   55.7510   78.5000   28.4070 C   0  0  0  0  0  0  0  0  0  0  0  0
   56.9200   79.2660   28.2920 C   0  0  0  0  0  0  0  0  0  0  0  0
   58.0040   79.1440   29.1790 N   0  0  0  0  0  0  0  0  0  0  0  0
   58.6760   80.0840   29.9780 C   0  0  0  0  0  0  0  0  0  0  0  0
   59.6780   80.9280   29.4800 C   0  0  0  0  0  0  0  0  0  0  0  0
   60.2930   81.8810   30.2980 C   0  0  0  0  0  0  0  0  0  0  0  0
   59.9060   81.9910   31.6340 C   0  0  0  0  0  0  0  0  0  0  0  0
   60.6840   83.2060   32.6650 S   0  0  0  0  0  0  0  0  0  0  0  0
   59.6850   83.1890   34.0200 N   0  0  0  0  0  0  0  0  0  0  0  0
   61.9810   82.7070   33.0560 O   0  0  0  0  0  0  0  0  0  0  0  0
   60.4980   84.5070   32.0640 O   0  0  0  0  0  0  0  0  0  0  0  0
   58.9000   81.1750   32.1510 C   0  0  0  0  0  0  0  0  0  0  0  0
   58.2940   80.2280   31.3210 C   0  0  0  0  0  0  0  0  0  0  0  0
   56.9810   80.2360   27.2780 C   0  0  0  0  0  0  0  0  0  0  0  0
   55.9170   80.4280   26.3940 C   0  0  0  0  0  0  0  0  0  0  0  0
   51.8707   81.9916   23.5752 H   0  0  0  0  0  0  0  0  0  0  0  0
   53.4548   82.5268   22.9188 H   0  0  0  0  0  0  0  0  0  0  0  0
   53.0257   80.7825   22.9188 H   0  0  0  0  0  0  0  0  0  0  0  0
   54.6325   81.8147   24.8022 H   0  0  0  0  0  0  0  0  0  0  0  0
   53.1391   82.2320   26.8666 H   0  0  0  0  0  0  0  0  0  0  0  0
   53.3542   83.5601   25.6764 H   0  0  0  0  0  0  0  0  0  0  0  0
   51.8423   82.5902   25.6764 H   0  0  0  0  0  0  0  0  0  0  0  0
   53.7677   78.0740   27.6330 H   0  0  0  0  0  0  0  0  0  0  0  0
   55.6762   77.7438   29.2024 H   0  0  0  0  0  0  0  0  0  0  0  0
   58.3700   78.2010   29.2520 H   0  0  0  0  0  0  0  0  0  0  0  0
   59.9859   80.8393   28.4277 H   0  0  0  0  0  0  0  0  0  0  0  0
   61.0755   82.5386   29.8915 H   0  0  0  0  0  0  0  0  0  0  0  0
   60.2460   83.3990   34.8460 H   0  0  0  0  0  0  0  0  0  0  0  0
   58.8800   83.8080   33.9370 H   0  0  0  0  0  0  0  0  0  0  0  0
   58.5870   81.2757   33.2007 H   0  0  0  0  0  0  0  0  0  0  0  0
   57.5018   79.5825   31.7283 H   0  0  0  0  0  0  0  0  0  0  0  0
   57.8840   80.8562   27.1783 H   0  0  0  0  0  0  0  0  0  0  0  0
   55.9798   81.1955   25.6085 H   0  0  0  0  0  0  0  0  0  0  0  0
  1  2  1  0
  2  3  1  0
  2  4  1  0
  4  5  2  0
  4  6  2  0
  4  7  1  0
  7  8  1  0
  8  9  2  0
  9 10  1  0
 10 11  1  0
 11 12  1  0
 12 13  1  0
 13 14  2  0
 14 15  1  0
 15 16  1  0
 16 17  1  0
 16 18  2  0
 16 19  2  0
 15 20  2  0
 20 21  1  0
 10 22  2  0
 22 23  1  0
 23  7  2  0
 21 12  2  0
  1 24  1  0
  1 25  1  0
  1 26  1  0
  2 27  1  0
  3 28  1  0
  3 29  1  0
  3 30  1  0
  8 31  1  0
  9 32  1  0
 11 33  1  0
 13 34  1  0
 14 35  1  0
 17 36  1  0
 17 37  1  0
 20 38  1  0
 21 39  1  0
 22 40  1  0
 23 41  1  0
M  END
>  <meeko>  (1) 
{"is_sidechain": false}

>  <smiles>  (1) 
CC(C)S(=O)(=O)c1ccc(Nc2ccc(S(N)(=O)=O)cc2)cc1

>  <vina_score>  (1) 
-7.845

>  <job_id>  (1) 
01237bf5c4346753

$$$$

     RDKit          3D

 61 65  0  0  0  0  0  0  0  0999 V2000
   66.7170   88.4240   26.7300 C   0  0  0  0  0  0  0  0  0  0  0  0
   65.9960   87.6740   27.7560 N   0  0  0  0  0  0  0  0  0  0  0  0
   65.6650   86.3160   27.2710 C   0  0  0  0  0  0  0  0  0  0  0  0
   64.9370   85.4670   28.3400 C   0  0  0  0  0  0  0  0  0  0  0  0
   65.7470   85.3800   29.5730 N   0  0  0  0  0  0  0  0  0  0  0  0
   65.3280   84.4890   30.5750 C   0  0  0  0  0  0  0  0  0  0  0  0
   64.2650   83.6090   30.3120 C   0  0  0  0  0  0  0  0  0  0  0  0
   63.8090   82.6980   31.2720 C   0  0  0  0  0  0  0  0  0  0  0  0
   64.4120   82.6290   32.5240 C   0  0  0  0  0  0  0  0  0  0  0  0
   63.9380   81.7080   33.4690 N   0  0  0  0  0  0  0  0  0  0  0  0
   62.8960   81.9890   34.1880 C   0  0  0  0  0  0  0  0  0  0  0  0
   62.0820   83.2340   34.2560 C   0  0  0  0  0  0  0  0  0  0  0  0
   62.5750   84.3250   35.1400 C   0  0  0  0  0  0  0  0  0  0  0  0
   63.6130   84.2190   35.7840 O   0  0  0  0  0  0  0  0  0  0  0  0
   61.8090   85.4550   35.1920 N   0  0  0  0  0  0  0  0  0  0  0  0
   60.6590   85.6450   34.4950 C   0  0  0  0  0  0  0  0  0  0  0  0
   60.1000   86.8660   34.7500 O   0  0  0  0  0  0  0  0  0  0  0  0
   60.1890   84.6940   33.6600 C   0  0  0  0  0  0  0  0  0  0  0  0
   58.9460   84.8300   32.8960 C   0  0  0  0  0  0  0  0  0  0  0  0
   58.5550   83.8570   32.0570 C   0  0  0  0  0  0  0  0  0  0  0  0
   59.3320   82.6380   31.8550 C   0  0  0  0  0  0  0  0  0  0  0  0
   58.9050   81.5890   30.9110 C   0  0  0  0  0  0  0  0  0  0  0  0
   58.1870   80.4760   31.3690 C   0  0  0  0  0  0  0  0  0  0  0  0
   57.7790   79.4810   30.4760 C   0  0  0  0  0  0  0  0  0  0  0  0
   58.0870   79.6060   29.1190 C   0  0  0  0  0  0  0  0  0  0  0  0
   57.6520   78.5530   28.1780 C   0  0  0  0  0  0  0  0  0  0  0  0
   56.6740   77.8490   28.3950 O   0  0  0  0  0  0  0  0  0  0  0  0
   58.7970   80.7150   28.6520 C   0  0  0  0  0  0  0  0  0  0  0  0
   59.2060   81.7050   29.5470 C   0  0  0  0  0  0  0  0  0  0  0  0
   60.4770   82.4400   32.5420 C   0  0  0  0  0  0  0  0  0  0  0  0
   60.9650   83.4260   33.5180 C   0  0  0  0  0  0  0  0  0  0  0  0
   65.4310   83.5340   32.8230 C   0  0  0  0  0  0  0  0  0  0  0  0
   65.8860   84.4450   31.8610 C   0  0  0  0  0  0  0  0  0  0  0  0
   66.1170   86.7200   30.0890 C   0  0  0  0  0  0  0  0  0  0  0  0
   66.8090   87.5570   28.9860 C   0  0  0  0  0  0  0  0  0  0  0  0
   67.4026   89.1372   27.2109 H   0  0  0  0  0  0  0  0  0  0  0  0
   67.2931   87.7273   26.1033 H   0  0  0  0  0  0  0  0  0  0  0  0
   65.9981   88.9722   26.1033 H   0  0  0  0  0  0  0  0  0  0  0  0
   65.0147   86.4053   26.3883 H   0  0  0  0  0  0  0  0  0  0  0  0
   66.6099   85.8083   27.0271 H   0  0  0  0  0  0  0  0  0  0  0  0
   63.9691   85.9337   28.5751 H   0  0  0  0  0  0  0  0  0  0  0  0
   64.7830   84.4525   27.9437 H   0  0  0  0  0  0  0  0  0  0  0  0
   63.7783   83.6366   29.3259 H   0  0  0  0  0  0  0  0  0  0  0  0
   62.9670   82.0312   31.0346 H   0  0  0  0  0  0  0  0  0  0  0  0
   62.5603   81.1795   34.8529 H   0  0  0  0  0  0  0  0  0  0  0  0
   62.1270   86.2000   35.7980 H   0  0  0  0  0  0  0  0  0  0  0  0
   59.8990   86.9380   35.6940 H   0  0  0  0  0  0  0  0  0  0  0  0
   58.3298   85.7340   33.0103 H   0  0  0  0  0  0  0  0  0  0  0  0
   57.6141   83.9834   31.5013 H   0  0  0  0  0  0  0  0  0  0  0  0
   57.9430   80.3848   32.4377 H   0  0  0  0  0  0  0  0  0  0  0  0
   57.2196   78.6062   30.8390 H   0  0  0  0  0  0  0  0  0  0  0  0
   58.2255   78.3965   27.2524 H   0  0  0  0  0  0  0  0  0  0  0  0
   59.0331   80.8077   27.5816 H   0  0  0  0  0  0  0  0  0  0  0  0
   59.7659   82.5783   29.1810 H   0  0  0  0  0  0  0  0  0  0  0  0
   61.0573   81.5218   32.3682 H   0  0  0  0  0  0  0  0  0  0  0  0
   65.8825   83.5321   33.8261 H   0  0  0  0  0  0  0  0  0  0  0  0
   66.6980   85.1405   32.1197 H   0  0  0  0  0  0  0  0  0  0  0  0
   65.2083   87.2424   30.4225 H   0  0  0  0  0  0  0  0  0  0  0  0
   66.8150   86.5956   30.9300 H   0  0  0  0  0  0  0  0  0  0  0  0
   66.9984   88.5669   29.3788 H   0  0  0  0  0  0  0  0  0  0  0  0
   67.7421   87.0405   28.7167 H   0  0  0  0  0  0  0  0  0  0  0  0
  1  2  1  0
  2  3  1  0
  3  4  1  0
  4  5  1  0
  5  6  1  0
  6  7  1  0
  7  8  2  0
  8  9  1  0
  9 10  1  0
 10 11  2  3
 11 12  1  0
 12 13  1  0
 13 14  2  0
 13 15  1  0
 15 16  1  0
 16 17  1  0
 16 18  2  0
 18 19  1  0
 19 20  2  0
 20 21  1  0
 21 22  1  0
 22 23  1  0
 23 24  2  0
 24 25  1  0
 25 26  1  0
 26 27  2  0
 25 28  2  0
 28 29  1  0
 21 30  2  0
 30 31  1  0
  9 32  2  0
 32 33  1  0
  5 34  1  0
 34 35  1  0
 35  2  1  0
 33  6  2  0
 31 12  2  0
 31 18  1  0
 29 22  2  0
  1 36  1  0
  1 37  1  0
  1 38  1  0
  3 39  1  0
  3 40  1  0
  4 41  1  0
  4 42  1  0
  7 43  1  0
  8 44  1  0
 11 45  1  0
 15 46  1  0
 17 47  1  0
 19 48  1  0
 20 49  1  0
 23 50  1  0
 24 51  1  0
 26 52  1  0
 28 53  1  0
 29 54  1  0
 30 55  1  0
 32 56  1  0
 33 57  1  0
 34 58  1  0
 34 59  1  0
 35 60  1  0
 35 61  1  0
M  END
>  <meeko>  (1) 
{"is_sidechain": false}

>  <smiles>  (1) 
CN1CCN(c2ccc(N=Cc3c(=O)[nH]c(O)c4ccc(-c5ccc(C=O)cc5)cc34)cc2)CC1

>  <vina_score>  (1) 
-6.664

>  <job_id>  (1) 
02c0b9cccc3bd529

$$$$

     RDKit          3D

 51 52  0  0  0  0  0  0  0  0999 V2000
   62.0260   82.6910   31.5850 C   0  0  0  0  0  0  0  0  0  0  0  0
   61.0970   83.7480   31.0190 C   0  0  0  0  0  0  0  0  0  0  0  0
   59.4310   83.5650   31.6300 S   0  0  0  0  0  0  0  0  0  0  0  0
   58.5600   84.6830   31.0220 N   0  0  0  0  0  0  0  0  0  0  0  0
   59.5210   83.3000   33.0530 O   0  0  0  0  0  0  0  0  0  0  0  0
   58.8890   82.0520   30.8540 C   0  0  0  0  0  0  0  0  0  0  0  0
   59.0320   81.8860   29.4780 C   0  0  0  0  0  0  0  0  0  0  0  0
   58.6010   80.6970   28.8770 C   0  0  0  0  0  0  0  0  0  0  0  0
   58.0400   79.6600   29.6300 C   0  0  0  0  0  0  0  0  0  0  0  0
   57.5780   78.4580   29.0820 N   0  0  0  0  0  0  0  0  0  0  0  0
   56.3140   77.9230   28.8520 C   0  0  0  0  0  0  0  0  0  0  0  0
   55.9760   76.6950   29.2590 N   0  0  0  0  0  0  0  0  0  0  0  0
   54.7180   76.2900   29.0030 C   0  0  0  0  0  0  0  0  0  0  0  0
   53.7930   77.0600   28.3400 C   0  0  0  0  0  0  0  0  0  0  0  0
   52.0560   76.3930   28.0230 Br  0  0  0  0  0  0  0  0  0  0  0  0
   54.2210   78.3110   27.9220 C   0  0  0  0  0  0  0  0  0  0  0  0
   53.3280   79.1810   27.2880 N   0  0  0  0  0  0  0  0  0  0  0  0
   53.7900   80.1170   26.2450 C   0  0  2  0  0  0  0  0  0  0  0  0
   53.6020   81.5970   26.6570 C   0  0  0  0  0  0  0  0  0  0  0  0
   54.6480   82.3990   26.0900 O   0  0  0  0  0  0  0  0  0  0  0  0
   55.9350   81.8940   26.4330 C   0  0  0  0  0  0  0  0  0  0  0  0
   53.2330   79.8280   24.8210 C   0  0  2  0  0  0  0  0  0  0  0  0
   53.6840   78.4810   24.2690 C   0  0  0  0  0  0  0  0  0  0  0  0
   53.6850   80.8200   23.8830 O   0  0  0  0  0  0  0  0  0  0  0  0
   55.4710   78.7360   28.1880 N   0  0  0  0  0  0  0  0  0  0  0  0
   57.9100   79.8560   31.0170 C   0  0  0  0  0  0  0  0  0  0  0  0
   58.3320   81.0380   31.6320 C   0  0  0  0  0  0  0  0  0  0  0  0
   61.9951   82.7262   32.6840 H   0  0  0  0  0  0  0  0  0  0  0  0
   61.7037   81.6972   31.2407 H   0  0  0  0  0  0  0  0  0  0  0  0
   63.0529   82.8831   31.2407 H   0  0  0  0  0  0  0  0  0  0  0  0
   61.4732   84.7416   31.3039 H   0  0  0  0  0  0  0  0  0  0  0  0
   61.0739   83.6315   29.9254 H   0  0  0  0  0  0  0  0  0  0  0  0
   57.5930   84.5900   31.3390 H   0  0  0  0  0  0  0  0  0  0  0  0
   59.4805   82.6838   28.8678 H   0  0  0  0  0  0  0  0  0  0  0  0
   58.7058   80.5757   27.7888 H   0  0  0  0  0  0  0  0  0  0  0  0
   58.2690   77.8570   28.6570 H   0  0  0  0  0  0  0  0  0  0  0  0
   54.4142   75.2889   29.3428 H   0  0  0  0  0  0  0  0  0  0  0  0
   52.4800   78.6880   27.0170 H   0  0  0  0  0  0  0  0  0  0  0  0
   54.8713   79.9312   26.1660 H   0  0  0  0  0  0  0  0  0  0  0  0
   52.6285   81.9563   26.2920 H   0  0  0  0  0  0  0  0  0  0  0  0
   53.6401   81.6750   27.7536 H   0  0  0  0  0  0  0  0  0  0  0  0
   56.0338   81.8552   27.5279 H   0  0  0  0  0  0  0  0  0  0  0  0
   56.0545   80.8823   26.0180 H   0  0  0  0  0  0  0  0  0  0  0  0
   56.7106   82.5545   26.0180 H   0  0  0  0  0  0  0  0  0  0  0  0
   52.1388   79.8375   24.9333 H   0  0  0  0  0  0  0  0  0  0  0  0
   53.9118   77.8007   25.1029 H   0  0  0  0  0  0  0  0  0  0  0  0
   52.8812   78.0499   23.6529 H   0  0  0  0  0  0  0  0  0  0  0  0
   54.5846   78.6202   23.6529 H   0  0  0  0  0  0  0  0  0  0  0  0
   54.3610   81.3620   24.3400 H   0  0  0  0  0  0  0  0  0  0  0  0
   57.4655   79.0598   31.6323 H   0  0  0  0  0  0  0  0  0  0  0  0
   58.2257   81.1670   32.7192 H   0  0  0  0  0  0  0  0  0  0  0  0
  1  2  1  0
  2  3  1  0
  3  4  2  0
  3  5  2  0
  3  6  1  0
  6  7  1  0
  7  8  2  0
  8  9  1  0
  9 10  1  0
 10 11  1  0
 11 12  2  0
 12 13  1  0
 13 14  2  0
 14 15  1  0
 14 16  1  0
 16 17  1  0
 17 18  1  0
 18 19  1  0
 19 20  1  0
 20 21  1  0
 18 22  1  0
 22 23  1  0
 22 24  1  0
 16 25  2  0
  9 26  2  0
 26 27  1  0
 27  6  2  0
 25 11  1  0
  1 28  1  0
  1 29  1  0
  1 30  1  0
  2 31  1  0
  2 32  1  0
  4 33  1  0
  7 34  1  0
  8 35  1  0
 10 36  1  0
 13 37  1  0
 17 38  1  0
 18 39  1  6
 19 40  1  0
 19 41  1  0
 21 42  1  0
 21 43  1  0
 21 44  1  0
 22 45  1  1
 23 46  1  0
 23 47  1  0
 23 48  1  0
 24 49  1  0
 26 50  1  0
 27 51  1  0
M  END
>  <meeko>  (1) 
{"is_sidechain": false}

>  <smiles>  (1) 
CCS(=N)(=O)c1ccc(Nc2ncc(Br)c(N[C@H](COC)[C@H](C)O)n2)cc1

>  <vina_score>  (1) 
-7.186

>  <job_id>  (1) 
0319f14966ce9b75

$$$$

     RDKit          3D

 68 70  0  0  0  0  0  0  0  0999 V2000
   60.4570   80.6120   36.1450 C   0  0  0  0  0  0  0  0  0  0  0  0
   61.1000   80.7810   34.7910 C   0  0  0  0  0  0  0  0  0  0  0  0
   61.1670   79.5160   33.9770 C   0  0  0  0  0  0  0  0  0  0  0  0
   61.5510   81.9860   34.3920 C   0  0  0  0  0  0  0  0  0  0  0  0
   62.2110   82.2980   33.0890 N   0  0  0  0  0  0  0  0  0  0  0  0
   63.2610   81.5990   32.8010 C   0  0  0  0  0  0  0  0  0  0  0  0
   64.1160   81.7960   31.6120 C   0  0  0  0  0  0  0  0  0  0  0  0
   65.3260   82.3420   31.7960 C   0  0  0  0  0  0  0  0  0  0  0  0
   66.2740   82.5010   30.6750 C   0  0  0  0  0  0  0  0  0  0  0  0
   66.5360   83.7760   30.2900 N   0  0  0  0  0  0  0  0  0  0  0  0
   66.8100   81.5300   30.1680 O   0  0  0  0  0  0  0  0  0  0  0  0
   61.6160   83.4400   32.3370 C   0  0  0  0  0  0  0  0  0  0  0  0
   60.1140   83.2470   32.2540 C   0  0  0  0  0  0  0  0  0  0  0  0
   59.3400   83.9600   32.8910 O   0  0  0  0  0  0  0  0  0  0  0  0
   59.5780   82.1720   31.3690 C   0  0  0  0  0  0  0  0  0  0  0  0
   59.8650   82.1090   30.0040 C   0  0  0  0  0  0  0  0  0  0  0  0
   59.3370   81.0730   29.2200 C   0  0  0  0  0  0  0  0  0  0  0  0
   58.5220   80.0780   29.7700 C   0  0  0  0  0  0  0  0  0  0  0  0
   57.9600   79.0330   29.0330 N   0  0  0  0  0  0  0  0  0  0  0  0
   56.6610   78.5640   28.8530 C   0  0  0  0  0  0  0  0  0  0  0  0
   56.0620   77.7650   29.7510 N   0  0  0  0  0  0  0  0  0  0  0  0
   54.7930   77.3840   29.4890 C   0  0  0  0  0  0  0  0  0  0  0  0
   54.1050   77.7690   28.3690 C   0  0  0  0  0  0  0  0  0  0  0  0
   52.8450   77.3690   28.1650 F   0  0  0  0  0  0  0  0  0  0  0  0
   54.7960   78.5740   27.4930 C   0  0  0  0  0  0  0  0  0  0  0  0
   54.1890   79.1070   26.2770 C   0  0  0  0  0  0  0  0  0  0  0  0
   53.6760   78.4150   25.1960 C   0  0  0  0  0  0  0  0  0  0  0  0
   53.1410   79.2570   24.2700 N   0  0  0  0  0  0  0  0  0  0  0  0
   53.3170   80.4750   24.7380 C   0  0  0  0  0  0  0  0  0  0  0  0
   52.8480   81.6930   24.0290 C   0  0  0  0  0  0  0  0  0  0  0  0
   54.0000   80.4450   25.9440 N   0  0  0  0  0  0  0  0  0  0  0  0
   54.4790   81.5870   26.7230 C   0  0  0  0  0  0  0  0  0  0  0  0
   55.5790   82.4040   26.0380 C   0  0  0  0  0  0  0  0  0  0  0  0
   53.3330   82.4760   27.2040 C   0  0  0  0  0  0  0  0  0  0  0  0
   56.0680   78.9790   27.7210 N   0  0  0  0  0  0  0  0  0  0  0  0
   58.2320   80.1660   31.1400 C   0  0  0  0  0  0  0  0  0  0  0  0
   58.7520   81.1950   31.9340 C   0  0  0  0  0  0  0  0  0  0  0  0
   61.2010   80.8076   36.9312 H   0  0  0  0  0  0  0  0  0  0  0  0
   59.6222   81.3212   36.2456 H   0  0  0  0  0  0  0  0  0  0  0  0
   60.0788   79.5840   36.2456 H   0  0  0  0  0  0  0  0  0  0  0  0
   61.2130   78.6481   34.6513 H   0  0  0  0  0  0  0  0  0  0  0  0
   60.2716   79.4404   33.3425 H   0  0  0  0  0  0  0  0  0  0  0  0
   62.0654   79.5354   33.3425 H   0  0  0  0  0  0  0  0  0  0  0  0
   61.4204   82.8222   35.0947 H   0  0  0  0  0  0  0  0  0  0  0  0
   63.5394   80.7938   33.4968 H   0  0  0  0  0  0  0  0  0  0  0  0
   63.7708   81.5042   30.6092 H   0  0  0  0  0  0  0  0  0  0  0  0
   65.6187   82.6783   32.8016 H   0  0  0  0  0  0  0  0  0  0  0  0
   66.3390   84.5760   30.8740 H   0  0  0  0  0  0  0  0  0  0  0  0
   67.2850   83.8840   29.6130 H   0  0  0  0  0  0  0  0  0  0  0  0
   61.8385   84.3819   32.8598 H   0  0  0  0  0  0  0  0  0  0  0  0
   62.0422   83.4804   31.3237 H   0  0  0  0  0  0  0  0  0  0  0  0
   60.5068   82.8739   29.5424 H   0  0  0  0  0  0  0  0  0  0  0  0
   59.5696   81.0420   28.1453 H   0  0  0  0  0  0  0  0  0  0  0  0
   58.5660   78.5480   28.3850 H   0  0  0  0  0  0  0  0  0  0  0  0
   54.2853   76.7301   30.2133 H   0  0  0  0  0  0  0  0  0  0  0  0
   53.6974   77.3197   25.0964 H   0  0  0  0  0  0  0  0  0  0  0  0
   52.5543   82.4557   24.7653 H   0  0  0  0  0  0  0  0  0  0  0  0
   53.6593   82.0854   23.3983 H   0  0  0  0  0  0  0  0  0  0  0  0
   51.9830   81.4400   23.3983 H   0  0  0  0  0  0  0  0  0  0  0  0
   54.9572   81.1417   27.6079 H   0  0  0  0  0  0  0  0  0  0  0  0
   56.2146   82.8761   26.8017 H   0  0  0  0  0  0  0  0  0  0  0  0
   56.1917   81.7403   25.4102 H   0  0  0  0  0  0  0  0  0  0  0  0
   55.1206   83.1823   25.4102 H   0  0  0  0  0  0  0  0  0  0  0  0
   53.3160   82.4892   28.3038 H   0  0  0  0  0  0  0  0  0  0  0  0
   53.4795   83.4990   26.8272 H   0  0  0  0  0  0  0  0  0  0  0  0
   52.3785   82.0797   26.8272 H   0  0  0  0  0  0  0  0  0  0  0  0
   57.5808   79.4087   31.6009 H   0  0  0  0  0  0  0  0  0  0  0  0
   58.5100   81.2353   33.0063 H   0  0  0  0  0  0  0  0  0  0  0  0
  1  2  1  0
  2  3  1  0
  2  4  2  3
  4  5  1  0
  5  6  2  3
  6  7  1  0
  7  8  2  3
  8  9  1  0
  9 10  1  0
  9 11  2  0
  5 12  1  0
 12 13  1  0
 13 14  2  0
 13 15  1  0
 15 16  1  0
 16 17  2  0
 17 18  1  0
 18 19  1  0
 19 20  1  0
 20 21  2  0
 21 22  1  0
 22 23  2  0
 23 24  1  0
 23 25  1  0
 25 26  1  0
 26 27  2  0
 27 28  1  0
 28 29  2  0
 29 30  1  0
 29 31  1  0
 31 32  1  0
 32 33  1  0
 32 34  1  0
 25 35  2  0
 18 36  2  0
 36 37  1  0
 37 15  2  0
 35 20  1  0
 31 26  1  0
  1 38  1  0
  1 39  1  0
  1 40  1  0
  3 41  1  0
  3 42  1  0
  3 43  1  0
  4 44  1  0
  6 45  1  0
  7 46  1  0
  8 47  1  0
 10 48  1  0
 10 49  1  0
 12 50  1  0
 12 51  1  0
 16 52  1  0
 17 53  1  0
 19 54  1  0
 22 55  1  0
 27 56  1  0
 30 57  1  0
 30 58  1  0
 30 59  1  0
 32 60  1  0
 33 61  1  0
 33 62  1  0
 33 63  1  0
 34 64  1  0
 34 65  1  0
 34 66  1  0
 36 67  1  0
 37 68  1  0
M  CHG  1   5   1
M  END
>  <meeko>  (1) 
{"is_sidechain": false}

>  <smiles>  (1) 
CC(C)=C[N+](=CC=CC(N)=O)CC(=O)c1ccc(Nc2ncc(F)c(-c3cnc(C)n3C(C)C)n2)cc1

>  <vina_score>  (1) 
-9.004

>  <job_id>  (1) 
0477cd210db606f7

$$$$

     RDKit          3D

 53 57  0  0  0  0  0  0  0  0999 V2000
   54.8100   86.1940   26.5200 C   0  0  0  0  0  0  0  0  0  0  0  0
   54.9990   84.7620   26.0370 C   0  0  0  0  0  0  0  0  0  0  0  0
   53.6470   84.0160   25.9610 C   0  0  0  0  0  0  0  0  0  0  0  0
   53.8590   82.6300   25.5070 N   0  0  0  0  0  0  0  0  0  0  0  0
   52.9890   82.0990   24.5630 C   0  0  0  0  0  0  0  0  0  0  0  0
   52.5930   82.8730   23.4600 C   0  0  0  0  0  0  0  0  0  0  0  0
   51.5850   82.4220   22.6200 C   0  0  0  0  0  0  0  0  0  0  0  0
   50.9320   81.2590   22.7890 N   0  0  0  0  0  0  0  0  0  0  0  0
   51.3490   80.4970   23.8250 C   0  0  0  0  0  0  0  0  0  0  0  0
   52.3840   80.8330   24.7040 C   0  0  0  0  0  0  0  0  0  0  0  0
   52.7410   79.8570   25.6640 N   0  0  0  0  0  0  0  0  0  0  0  0
   53.5000   78.7250   25.4350 C   0  0  0  0  0  0  0  0  0  0  0  0
   53.9760   78.3580   24.3640 O   0  0  0  0  0  0  0  0  0  0  0  0
   53.6720   77.8540   26.6480 C   0  0  0  0  0  0  0  0  0  0  0  0
   52.8180   76.8330   26.8210 C   0  0  0  0  0  0  0  0  0  0  0  0
   53.0060   75.9880   28.0200 C   0  0  0  0  0  0  0  0  0  0  0  0
   53.9170   76.1380   28.9280 N   0  0  0  0  0  0  0  0  0  0  0  0
   54.7360   77.1970   28.6820 N   0  0  0  0  0  0  0  0  0  0  0  0
   55.7770   77.5930   29.4750 C   0  0  0  0  0  0  0  0  0  0  0  0
   56.3220   78.6990   28.8590 C   0  0  0  0  0  0  0  0  0  0  0  0
   57.4600   79.4810   29.3210 C   0  0  0  0  0  0  0  0  0  0  0  0
   58.2120   80.2210   28.3960 C   0  0  0  0  0  0  0  0  0  0  0  0
   59.3080   80.9820   28.8070 C   0  0  0  0  0  0  0  0  0  0  0  0
   59.6700   81.0140   30.1510 C   0  0  0  0  0  0  0  0  0  0  0  0
   58.9340   80.2870   31.0840 C   0  0  0  0  0  0  0  0  0  0  0  0
   57.8350   79.5250   30.6730 C   0  0  0  0  0  0  0  0  0  0  0  0
   55.6320   78.9890   27.6980 N   0  0  0  0  0  0  0  0  0  0  0  0
   54.6870   78.0710   27.6120 C   0  0  0  0  0  0  0  0  0  0  0  0
   55.2080   82.0890   25.6990 C   0  0  0  0  0  0  0  0  0  0  0  0
   55.8150   82.6990   26.9720 C   0  0  0  0  0  0  0  0  0  0  0  0
   55.9500   84.1320   26.9170 O   0  0  0  0  0  0  0  0  0  0  0  0
   54.8075   86.2127   27.6198 H   0  0  0  0  0  0  0  0  0  0  0  0
   55.6334   86.8193   26.1445 H   0  0  0  0  0  0  0  0  0  0  0  0
   53.8526   86.5843   26.1445 H   0  0  0  0  0  0  0  0  0  0  0  0
   55.3943   84.7382   25.0108 H   0  0  0  0  0  0  0  0  0  0  0  0
   53.1807   84.0054   26.9572 H   0  0  0  0  0  0  0  0  0  0  0  0
   52.9899   84.5329   25.2461 H   0  0  0  0  0  0  0  0  0  0  0  0
   53.0826   83.8379   23.2618 H   0  0  0  0  0  0  0  0  0  0  0  0
   51.3033   83.0537   21.7647 H   0  0  0  0  0  0  0  0  0  0  0  0
   50.8346   79.5387   23.9894 H   0  0  0  0  0  0  0  0  0  0  0  0
   52.1850   79.8460   26.5200 H   0  0  0  0  0  0  0  0  0  0  0  0
   52.0113   76.6330   26.1004 H   0  0  0  0  0  0  0  0  0  0  0  0
   52.3044   75.1514   28.1534 H   0  0  0  0  0  0  0  0  0  0  0  0
   56.1111   77.1248   30.4126 H   0  0  0  0  0  0  0  0  0  0  0  0
   57.9341   80.2013   27.3319 H   0  0  0  0  0  0  0  0  0  0  0  0
   59.8860   81.5568   28.0684 H   0  0  0  0  0  0  0  0  0  0  0  0
   60.5347   81.6116   30.4752 H   0  0  0  0  0  0  0  0  0  0  0  0
   59.2176   80.3121   32.1465 H   0  0  0  0  0  0  0  0  0  0  0  0
   57.2591   78.9547   31.4167 H   0  0  0  0  0  0  0  0  0  0  0  0
   55.1554   80.9952   25.8030 H   0  0  0  0  0  0  0  0  0  0  0  0
   55.8358   82.3392   24.8311 H   0  0  0  0  0  0  0  0  0  0  0  0
   55.1671   82.4432   27.8233 H   0  0  0  0  0  0  0  0  0  0  0  0
   56.8280   82.2834   27.0775 H   0  0  0  0  0  0  0  0  0  0  0  0
  1  2  1  0
  2  3  1  0
  3  4  1  0
  4  5  1  0
  5  6  2  0
  6  7  1  0
  7  8  2  0
  8  9  1  0
  9 10  2  0
 10 11  1  0
 11 12  1  0
 12 13  2  0
 12 14  1  0
 14 15  2  0
 15 16  1  0
 16 17  2  0
 17 18  1  0
 18 19  1  0
 19 20  2  0
 20 21  1  0
 21 22  2  0
 22 23  1  0
 23 24  2  0
 24 25  1  0
 25 26  2  0
 20 27  1  0
 27 28  2  0
  4 29  1  0
 29 30  1  0
 30 31  1  0
 31  2  1  0
 10  5  1  0
 28 14  1  0
 28 18  1  0
 26 21  1  0
  1 32  1  0
  1 33  1  0
  1 34  1  0
  2 35  1  0
  3 36  1  0
  3 37  1  0
  6 38  1  0
  7 39  1  0
  9 40  1  0
 11 41  1  0
 15 42  1  0
 16 43  1  0
 19 44  1  0
 22 45  1  0
 23 46  1  0
 24 47  1  0
 25 48  1  0
 26 49  1  0
 29 50  1  0
 29 51  1  0
 30 52  1  0
 30 53  1  0
M  END
>  <meeko>  (1) 
{"is_sidechain": false}

>  <smiles>  (1) 
CC1CN(c2ccncc2NC(=O)c2ccnn3cc(-c4ccccc4)nc23)CCO1

>  <vina_score>  (1) 
-8.899

>  <job_id>  (1) 
0af9baa73677a414

$$$$

     RDKit          3D

 53 55  0  0  0  0  0  0  0  0999 V2000
   53.6850   84.3430   25.7700 C   0  0  0  0  0  0  0  0  0  0  0  0
   52.8410   83.0990   26.0050 C   0  0  0  0  0  0  0  0  0  0  0  0
   53.5190   82.0550   26.8990 C   0  0  0  0  0  0  0  0  0  0  0  0
   54.4200   81.0360   26.1690 C   0  0  0  0  0  0  0  0  0  0  0  0
   54.0130   80.8120   24.7070 C   0  0  0  0  0  0  0  0  0  0  0  0
   54.4950   79.7590   26.9260 N   0  0  0  0  0  0  0  0  0  0  0  0
   53.4350   78.8640   26.8940 C   0  0  0  0  0  0  0  0  0  0  0  0
   52.3980   79.0630   26.2620 O   0  0  0  0  0  0  0  0  0  0  0  0
   53.5610   77.5960   27.6730 C   0  0  0  0  0  0  0  0  0  0  0  0
   52.4460   76.6030   27.5940 C   0  0  0  0  0  0  0  0  0  0  0  0
   52.5080   75.5480   26.5200 C   0  0  0  0  0  0  0  0  0  0  0  0
   51.5020   76.6590   28.3820 O   0  0  0  0  0  0  0  0  0  0  0  0
   54.6450   77.3360   28.4350 C   0  0  0  0  0  0  0  0  0  0  0  0
   54.8100   76.1130   29.3030 C   0  0  0  0  0  0  0  0  0  0  0  0
   55.7360   78.3270   28.4360 C   0  0  0  0  0  0  0  0  0  0  0  0
   56.9180   78.1820   29.1360 C   0  0  0  0  0  0  0  0  0  0  0  0
   57.9160   79.0880   29.1560 N   0  0  0  0  0  0  0  0  0  0  0  0
   57.7450   80.2010   28.4400 C   0  0  0  0  0  0  0  0  0  0  0  0
   58.7030   81.1960   28.3950 N   0  0  0  0  0  0  0  0  0  0  0  0
   59.3350   81.9840   29.3370 C   0  0  0  0  0  0  0  0  0  0  0  0
   60.6610   81.8290   29.7300 C   0  0  0  0  0  0  0  0  0  0  0  0
   61.2060   82.6820   30.6940 C   0  0  0  0  0  0  0  0  0  0  0  0
   60.4130   83.6800   31.2510 C   0  0  0  0  0  0  0  0  0  0  0  0
   60.9780   84.5840   32.2680 C   0  0  0  0  0  0  0  0  0  0  0  0
   60.8950   85.7990   32.2630 O   0  0  0  0  0  0  0  0  0  0  0  0
   61.6210   83.9300   33.2500 O   0  0  0  0  0  0  0  0  0  0  0  0
   59.1050   83.7740   30.8130 C   0  0  0  0  0  0  0  0  0  0  0  0
   58.5600   82.9530   29.8770 N   0  0  0  0  0  0  0  0  0  0  0  0
   56.6410   80.4300   27.7190 N   0  0  0  0  0  0  0  0  0  0  0  0
   55.6560   79.5030   27.7110 C   0  0  0  0  0  0  0  0  0  0  0  0
   53.9783   84.7753   26.7380 H   0  0  0  0  0  0  0  0  0  0  0  0
   54.5867   84.0723   25.2010 H   0  0  0  0  0  0  0  0  0  0  0  0
   53.1002   85.0808   25.2010 H   0  0  0  0  0  0  0  0  0  0  0  0
   51.8976   83.4042   26.4813 H   0  0  0  0  0  0  0  0  0  0  0  0
   52.6822   82.6279   25.0238 H   0  0  0  0  0  0  0  0  0  0  0  0
   54.1391   82.5898   27.6335 H   0  0  0  0  0  0  0  0  0  0  0  0
   52.7040   81.4685   27.3481 H   0  0  0  0  0  0  0  0  0  0  0  0
   55.4292   81.4721   26.1322 H   0  0  0  0  0  0  0  0  0  0  0  0
   53.0498   80.2819   24.6716 H   0  0  0  0  0  0  0  0  0  0  0  0
   53.9156   81.7836   24.2005 H   0  0  0  0  0  0  0  0  0  0  0  0
   54.7817   80.2099   24.2005 H   0  0  0  0  0  0  0  0  0  0  0  0
   52.5665   74.5533   26.9860 H   0  0  0  0  0  0  0  0  0  0  0  0
   51.6048   75.6075   25.8949 H   0  0  0  0  0  0  0  0  0  0  0  0
   53.3980   75.7129   25.8949 H   0  0  0  0  0  0  0  0  0  0  0  0
   54.7703   76.4071   30.3622 H   0  0  0  0  0  0  0  0  0  0  0  0
   53.9999   75.4001   29.0898 H   0  0  0  0  0  0  0  0  0  0  0  0
   55.7801   75.6402   29.0898 H   0  0  0  0  0  0  0  0  0  0  0  0
   57.0549   77.2598   29.7198 H   0  0  0  0  0  0  0  0  0  0  0  0
   59.0120   81.3920   27.4560 H   0  0  0  0  0  0  0  0  0  0  0  0
   61.2791   81.0366   29.2828 H   0  0  0  0  0  0  0  0  0  0  0  0
   62.2533   82.5651   31.0095 H   0  0  0  0  0  0  0  0  0  0  0  0
   62.5510   84.2320   33.1700 H   0  0  0  0  0  0  0  0  0  0  0  0
   58.4684   84.5589   31.2473 H   0  0  0  0  0  0  0  0  0  0  0  0
  1  2  1  0
  2  3  1  0
  3  4  1  0
  4  5  1  0
  4  6  1  0
  6  7  1  0
  7  8  2  0
  7  9  1  0
  9 10  1  0
 10 11  1  0
 10 12  2  0
  9 13  2  0
 13 14  1  0
 13 15  1  0
 15 16  2  0
 16 17  1  0
 17 18  2  0
 18 19  1  0
 19 20  1  0
 20 21  2  0
 21 22  1  0
 22 23  2  0
 23 24  1  0
 24 25  2  0
 24 26  1  0
 23 27  1  0
 27 28  2  0
 18 29  1  0
 29 30  2  0
 30  6  1  0
 30 15  1  0
 28 20  1  0
  1 31  1  0
  1 32  1  0
  1 33  1  0
  2 34  1  0
  2 35  1  0
  3 36  1  0
  3 37  1  0
  4 38  1  0
  5 39  1  0
  5 40  1  0
  5 41  1  0
 11 42  1  0
 11 43  1  0
 11 44  1  0
 14 45  1  0
 14 46  1  0
 14 47  1  0
 16 48  1  0
 19 49  1  0
 21 50  1  0
 22 51  1  0
 26 52  1  0
 27 53  1  0
M  END
>  <meeko>  (1) 
{"is_sidechain": false}

>  <smiles>  (1) 
CCCC(C)n1c(=O)c(C(C)=O)c(C)c2cnc(Nc3ccc(C(=O)O)cn3)nc21

>  <vina_score>  (1) 
-8.169

>  <job_id>  (1) 
0f1350b852b691fb

$$$$

     RDKit          3D

 39 40  0  0  0  0  0  0  0  0999 V2000
   52.9350   81.7320   20.8620 C   0  0  0  0  0  0  0  0  0  0  0  0
   52.0670   82.4030   21.9290 C   0  0  0  0  0  0  0  0  0  0  0  0
   51.1460   83.4330   21.2700 C   0  0  0  0  0  0  0  0  0  0  0  0
   51.2750   81.3330   22.7060 C   0  0  0  0  0  0  0  0  0  0  0  0
   52.0480   80.7060   23.8410 C   0  0  0  0  0  0  0  0  0  0  0  0
   52.6660   79.4600   23.6790 C   0  0  0  0  0  0  0  0  0  0  0  0
   53.3870   78.8820   24.7280 C   0  0  0  0  0  0  0  0  0  0  0  0
   53.5110   79.5310   25.9660 C   0  0  0  0  0  0  0  0  0  0  0  0
   54.2730   78.9230   27.0700 C   0  0  0  0  0  0  0  0  0  0  0  0
   53.7620   77.8210   27.7790 C   0  0  0  0  0  0  0  0  0  0  0  0
   54.4810   77.2330   28.8250 C   0  0  0  0  0  0  0  0  0  0  0  0
   55.7280   77.7390   29.1840 C   0  0  0  0  0  0  0  0  0  0  0  0
   56.2420   78.8390   28.4960 C   0  0  0  0  0  0  0  0  0  0  0  0
   57.8370   79.4710   28.9200 S   0  0  0  0  0  0  0  0  0  0  0  0
   58.8490   78.2370   28.3950 N   0  0  0  0  0  0  0  0  0  0  0  0
   58.1390   80.6100   28.0830 O   0  0  0  0  0  0  0  0  0  0  0  0
   57.9700   79.5090   30.3570 O   0  0  0  0  0  0  0  0  0  0  0  0
   55.5310   79.4230   27.4410 C   0  0  0  0  0  0  0  0  0  0  0  0
   52.8880   80.7800   26.1200 C   0  0  0  0  0  0  0  0  0  0  0  0
   52.1650   81.3600   25.0720 C   0  0  0  0  0  0  0  0  0  0  0  0
   53.7150   81.1290   21.3498 H   0  0  0  0  0  0  0  0  0  0  0  0
   52.3076   81.0818   20.2346 H   0  0  0  0  0  0  0  0  0  0  0  0
   53.4062   82.5029   20.2346 H   0  0  0  0  0  0  0  0  0  0  0  0
   52.7024   82.9359   22.6517 H   0  0  0  0  0  0  0  0  0  0  0  0
   50.6278   84.0125   22.0482 H   0  0  0  0  0  0  0  0  0  0  0  0
   51.7437   84.1120   20.6441 H   0  0  0  0  0  0  0  0  0  0  0  0
   50.4047   82.9146   20.6441 H   0  0  0  0  0  0  0  0  0  0  0  0
   50.3712   81.8036   23.1204 H   0  0  0  0  0  0  0  0  0  0  0  0
   51.0421   80.5275   21.9940 H   0  0  0  0  0  0  0  0  0  0  0  0
   52.5834   78.9313   22.7179 H   0  0  0  0  0  0  0  0  0  0  0  0
   53.8650   77.9023   24.5805 H   0  0  0  0  0  0  0  0  0  0  0  0
   52.7775   77.4135   27.5056 H   0  0  0  0  0  0  0  0  0  0  0  0
   54.0615   76.3708   29.3641 H   0  0  0  0  0  0  0  0  0  0  0  0
   56.3014   77.2766   30.0009 H   0  0  0  0  0  0  0  0  0  0  0  0
   59.0150   77.5800   29.1580 H   0  0  0  0  0  0  0  0  0  0  0  0
   58.4580   77.8050   27.5580 H   0  0  0  0  0  0  0  0  0  0  0  0
   55.9607   80.2787   26.8996 H   0  0  0  0  0  0  0  0  0  0  0  0
   52.9697   81.3109   27.0799 H   0  0  0  0  0  0  0  0  0  0  0  0
   51.6844   82.3387   25.2173 H   0  0  0  0  0  0  0  0  0  0  0  0
  1  2  1  0
  2  3  1  0
  2  4  1  0
  4  5  1  0
  5  6  1  0
  6  7  2  0
  7  8  1  0
  8  9  1  0
  9 10  1  0
 10 11  2  0
 11 12  1  0
 12 13  2  0
 13 14  1  0
 14 15  1  0
 14 16  2  0
 14 17  2  0
 13 18  1  0
  8 19  2  0
 19 20  1  0
 20  5  2  0
 18  9  2  0
  1 21  1  0
  1 22  1  0
  1 23  1  0
  2 24  1  0
  3 25  1  0
  3 26  1  0
  3 27  1  0
  4 28  1  0
  4 29  1  0
  6 30  1  0
  7 31  1  0
 10 32  1  0
 11 33  1  0
 12 34  1  0
 15 35  1  0
 15 36  1  0
 18 37  1  0
 19 38  1  0
 20 39  1  0
M  END
>  <meeko>  (1) 
{"is_sidechain": false}

>  <smiles>  (1) 
CC(C)Cc1ccc(-c2cccc(S(N)(=O)=O)c2)cc1

>  <vina_score>  (1) 
-7.577

>  <job_id>  (1) 
0f6b4cb339863e0e

$$$$

     RDKit          3D

 41 42  0  0  0  0  0  0  0  0999 V2000
   60.0600   81.6330   29.7270 C   0  0  0  0  0  0  0  0  0  0  0  0
   58.8840   80.8140   30.2620 C   0  0  0  0  0  0  0  0  0  0  0  0
   59.0210   80.6050   31.7710 C   0  0  0  0  0  0  0  0  0  0  0  0
   58.6710   79.4950   29.4900 C   0  0  0  0  0  0  0  0  0  0  0  0
   57.3510   79.3440   28.7720 C   0  0  0  0  0  0  0  0  0  0  0  0
   57.0590   80.1190   27.6450 C   0  0  0  0  0  0  0  0  0  0  0  0
   55.8340   79.9780   26.9840 C   0  0  0  0  0  0  0  0  0  0  0  0
   54.8700   79.0630   27.4280 C   0  0  0  0  0  0  0  0  0  0  0  0
   53.6700   78.9330   26.7080 N   0  0  0  0  0  0  0  0  0  0  0  0
   53.1960   79.5650   25.5460 C   0  0  0  0  0  0  0  0  0  0  0  0
   52.5350   80.7980   25.6690 C   0  0  0  0  0  0  0  0  0  0  0  0
   52.0070   81.4500   24.5510 C   0  0  0  0  0  0  0  0  0  0  0  0
   52.1290   80.8600   23.2930 C   0  0  0  0  0  0  0  0  0  0  0  0
   51.4620   81.6870   21.8750 S   0  0  0  0  0  0  0  0  0  0  0  0
   49.8180   81.3570   22.0370 N   0  0  0  0  0  0  0  0  0  0  0  0
   51.8840   80.9820   20.6880 O   0  0  0  0  0  0  0  0  0  0  0  0
   51.6490   83.1090   22.0450 O   0  0  0  0  0  0  0  0  0  0  0  0
   52.7880   79.6390   23.1430 C   0  0  0  0  0  0  0  0  0  0  0  0
   53.3090   78.9970   24.2700 C   0  0  0  0  0  0  0  0  0  0  0  0
   55.1740   78.2860   28.5490 C   0  0  0  0  0  0  0  0  0  0  0  0
   56.3960   78.4240   29.2160 C   0  0  0  0  0  0  0  0  0  0  0  0
   60.6395   82.0366   30.5704 H   0  0  0  0  0  0  0  0  0  0  0  0
   60.7064   80.9886   29.1130 H   0  0  0  0  0  0  0  0  0  0  0  0
   59.6798   82.4627   29.1130 H   0  0  0  0  0  0  0  0  0  0  0  0
   57.9663   81.3950   30.0881 H   0  0  0  0  0  0  0  0  0  0  0  0
   58.4929   81.4106   32.3022 H   0  0  0  0  0  0  0  0  0  0  0  0
   58.5832   79.6347   32.0480 H   0  0  0  0  0  0  0  0  0  0  0  0
   60.0854   80.6194   32.0480 H   0  0  0  0  0  0  0  0  0  0  0  0
   59.4715   79.4130   28.7400 H   0  0  0  0  0  0  0  0  0  0  0  0
   58.6807   78.7038   30.2542 H   0  0  0  0  0  0  0  0  0  0  0  0
   57.7982   80.8450   27.2755 H   0  0  0  0  0  0  0  0  0  0  0  0
   55.6237   80.5969   26.0993 H   0  0  0  0  0  0  0  0  0  0  0  0
   52.9930   78.3180   27.1470 H   0  0  0  0  0  0  0  0  0  0  0  0
   52.4310   81.2587   26.6625 H   0  0  0  0  0  0  0  0  0  0  0  0
   51.4998   82.4197   24.6623 H   0  0  0  0  0  0  0  0  0  0  0  0
   49.4860   81.4250   22.9990 H   0  0  0  0  0  0  0  0  0  0  0  0
   49.6260   80.4380   21.6320 H   0  0  0  0  0  0  0  0  0  0  0  0
   52.8965   79.1858   22.1466 H   0  0  0  0  0  0  0  0  0  0  0  0
   53.8169   78.0283   24.1531 H   0  0  0  0  0  0  0  0  0  0  0  0
   54.4394   77.5528   28.9135 H   0  0  0  0  0  0  0  0  0  0  0  0
   56.6078   77.8026   30.0986 H   0  0  0  0  0  0  0  0  0  0  0  0
  1  2  1  0
  2  3  1  0
  2  4  1  0
  4  5  1  0
  5  6  1  0
  6  7  2  0
  7  8  1  0
  8  9  1  0
  9 10  1  0
 10 11  1  0
 11 12  2  0
 12 13  1  0
 13 14  1  0
 14 15  1  0
 14 16  2  0
 14 17  2  0
 13 18  2  0
 18 19  1  0
  8 20  2  0
 20 21  1  0
 21  5  2  0
 19 10  2  0
  1 22  1  0
  1 23  1  0
  1 24  1  0
  2 25  1  0
  3 26  1  0
  3 27  1  0
  3 28  1  0
  4 29  1  0
  4 30  1  0
  6 31  1  0
  7 32  1  0
  9 33  1  0
 11 34  1  0
 12 35  1  0
 15 36  1  0
 15 37  1  0
 18 38  1  0
 19 39  1  0
 20 40  1  0
 21 41  1  0
M  END
>  <meeko>  (1) 
{"is_sidechain": false}

>  <smiles>  (1) 
CC(C)Cc1ccc(Nc2ccc(S(N)(=O)=O)cc2)cc1

>  <vina_score>  (1) 
-7.966

>  <job_id>  (1) 
107c7a745290473c

$$$$

     RDKit          3D

 51 52  0  0  0  0  0  0  0  0999 V2000
   53.6090   81.4550   27.2670 C   0  0  0  0  0  0  0  0  0  0  0  0
   53.9820   80.2940   26.3390 C   0  0  1  0  0  0  0  0  0  0  0  0
   53.5110   79.0760   26.9470 O   0  0  0  0  0  0  0  0  0  0  0  0
   54.4280   78.3540   27.6800 C   0  0  0  0  0  0  0  0  0  0  0  0
   55.6520   78.8750   27.8970 N   0  0  0  0  0  0  0  0  0  0  0  0
   56.5140   78.1500   28.6250 C   0  0  0  0  0  0  0  0  0  0  0  0
   57.7610   78.7370   28.8150 N   0  0  0  0  0  0  0  0  0  0  0  0
   58.2540   79.7140   29.6870 C   0  0  0  0  0  0  0  0  0  0  0  0
   59.2300   80.6070   29.2060 C   0  0  0  0  0  0  0  0  0  0  0  0
   59.7690   81.6090   30.0190 C   0  0  0  0  0  0  0  0  0  0  0  0
   59.3240   81.7330   31.3350 C   0  0  0  0  0  0  0  0  0  0  0  0
   60.0230   82.9870   32.3810 S   0  0  0  0  0  0  0  0  0  0  0  0
   59.7550   82.6200   33.7640 O   0  0  0  0  0  0  0  0  0  0  0  0
   61.3890   83.2190   31.9330 O   0  0  0  0  0  0  0  0  0  0  0  0
   58.8540   84.8270   31.9590 S   0  0  0  0  0  0  0  0  0  0  0  0
   58.1900   84.7550   30.5710 N   0  0  0  0  0  0  0  0  0  0  0  0
   57.4290   84.8500   32.8910 N   0  0  0  0  0  0  0  0  0  0  0  0
   59.5750   85.9650   32.4870 O   0  0  0  0  0  0  0  0  0  0  0  0
   58.3720   80.8530   31.8430 C   0  0  0  0  0  0  0  0  0  0  0  0
   57.8410   79.8560   31.0170 C   0  0  0  0  0  0  0  0  0  0  0  0
   56.2040   76.9510   29.1330 N   0  0  0  0  0  0  0  0  0  0  0  0
   54.9670   76.4700   28.8960 C   0  0  0  0  0  0  0  0  0  0  0  0
   54.0200   77.1400   28.1640 C   0  0  0  0  0  0  0  0  0  0  0  0
   52.6670   76.5890   27.9190 C   0  0  0  0  0  0  0  0  0  0  0  0
   52.5240   75.3170   28.3980 F   0  0  0  0  0  0  0  0  0  0  0  0
   51.6750   77.3050   28.5130 F   0  0  0  0  0  0  0  0  0  0  0  0
   52.3500   76.5080   26.5980 F   0  0  0  0  0  0  0  0  0  0  0  0
   53.3410   80.4050   24.9170 C   0  0  0  0  0  0  0  0  0  0  0  0
   51.9070   80.9430   25.0210 C   0  0  0  0  0  0  0  0  0  0  0  0
   53.3170   79.0540   24.1930 C   0  0  0  0  0  0  0  0  0  0  0  0
   54.0570   81.3330   24.0910 O   0  0  0  0  0  0  0  0  0  0  0  0
   53.7119   81.1349   28.3143 H   0  0  0  0  0  0  0  0  0  0  0  0
   54.2788   82.3065   27.0764 H   0  0  0  0  0  0  0  0  0  0  0  0
   52.5686   81.7571   27.0764 H   0  0  0  0  0  0  0  0  0  0  0  0
   55.0739   80.3128   26.2072 H   0  0  0  0  0  0  0  0  0  0  0  0
   58.4110   78.3490   28.1480 H   0  0  0  0  0  0  0  0  0  0  0  0
   59.5768   80.5145   28.1662 H   0  0  0  0  0  0  0  0  0  0  0  0
   60.5358   82.2921   29.6248 H   0  0  0  0  0  0  0  0  0  0  0  0
   58.9020   84.6450   29.8420 H   0  0  0  0  0  0  0  0  0  0  0  0
   57.5440   85.6740   33.4730 H   0  0  0  0  0  0  0  0  0  0  0  0
   56.7270   85.1130   32.2040 H   0  0  0  0  0  0  0  0  0  0  0  0
   58.0392   80.9410   32.8877 H   0  0  0  0  0  0  0  0  0  0  0  0
   57.0829   79.1692   31.4214 H   0  0  0  0  0  0  0  0  0  0  0  0
   54.7028   75.4867   29.3123 H   0  0  0  0  0  0  0  0  0  0  0  0
   51.6303   81.0468   26.0805 H   0  0  0  0  0  0  0  0  0  0  0  0
   51.8471   81.9248   24.5285 H   0  0  0  0  0  0  0  0  0  0  0  0
   51.2161   80.2429   24.5285 H   0  0  0  0  0  0  0  0  0  0  0  0
   53.3026   78.2411   24.9340 H   0  0  0  0  0  0  0  0  0  0  0  0
   52.4176   78.9917   23.5628 H   0  0  0  0  0  0  0  0  0  0  0  0
   54.2136   78.9598   23.5628 H   0  0  0  0  0  0  0  0  0  0  0  0
   54.1230   80.9680   23.1940 H   0  0  0  0  0  0  0  0  0  0  0  0
  1  2  1  0
  2  3  1  0
  3  4  1  0
  4  5  2  0
  5  6  1  0
  6  7  1  0
  7  8  1  0
  8  9  1  0
  9 10  2  0
 10 11  1  0
 11 12  1  0
 12 13  2  0
 12 14  2  0
 12 15  1  0
 15 16  2  0
 15 17  1  0
 15 18  2  0
 11 19  2  0
 19 20  1  0
  6 21  2  0
 21 22  1  0
 22 23  2  0
 23 24  1  0
 24 25  1  0
 24 26  1  0
 24 27  1  0
  2 28  1  0
 28 29  1  0
 28 30  1  0
 28 31  1  0
 23  4  1  0
 20  8  2  0
  1 32  1  0
  1 33  1  0
  1 34  1  0
  2 35  1  6
  7 36  1  0
  9 37  1  0
 10 38  1  0
 16 39  1  0
 17 40  1  0
 17 41  1  0
 19 42  1  0
 20 43  1  0
 22 44  1  0
 29 45  1  0
 29 46  1  0
 29 47  1  0
 30 48  1  0
 30 49  1  0
 30 50  1  0
 31 51  1  0
M  END
>  <meeko>  (1) 
{"is_sidechain": false}

>  <smiles>  (1) 
C[C@@H](Oc1nc(Nc2ccc(S(=O)(=O)S(=N)(N)=O)cc2)ncc1C(F)(F)F)C(C)(C)O

>  <vina_score>  (1) 
-8.548

>  <job_id>  (1) 
12b73bbe0c186e4b

$$$$

     RDKit          3D

 42 43  0  0  0  0  0  0  0  0999 V2000
   52.9350   78.3740   26.7020 C   0  0  0  0  0  0  0  0  0  0  0  0
   54.2360   79.1340   26.7430 C   0  0  0  0  0  0  0  0  0  0  0  0
   55.1820   78.8180   27.7410 C   0  0  0  0  0  0  0  0  0  0  0  0
   56.4160   79.4830   27.8400 C   0  0  0  0  0  0  0  0  0  0  0  0
   57.4580   79.1520   28.9240 C   0  0  0  0  0  0  0  0  0  0  0  0
   56.7380   78.7220   30.2210 C   0  0  0  0  0  0  0  0  0  0  0  0
   58.3840   80.3350   29.2860 C   0  0  0  0  0  0  0  0  0  0  0  0
   58.3610   77.9980   28.4380 C   0  0  0  0  0  0  0  0  0  0  0  0
   56.6780   80.4880   26.8940 C   0  0  0  0  0  0  0  0  0  0  0  0
   55.7530   80.8120   25.8980 C   0  0  0  0  0  0  0  0  0  0  0  0
   54.5240   80.1440   25.8040 C   0  0  0  0  0  0  0  0  0  0  0  0
   53.5870   80.5190   24.7380 C   0  0  0  0  0  0  0  0  0  0  0  0
   53.0830   79.5500   23.8560 C   0  0  0  0  0  0  0  0  0  0  0  0
   52.1940   79.9030   22.8370 C   0  0  0  0  0  0  0  0  0  0  0  0
   51.8010   81.2360   22.7010 C   0  0  0  0  0  0  0  0  0  0  0  0
   50.7020   81.6940   21.3930 S   0  0  0  0  0  0  0  0  0  0  0  0
   49.2080   81.2700   22.0300 N   0  0  0  0  0  0  0  0  0  0  0  0
   50.9130   80.8190   20.2630 O   0  0  0  0  0  0  0  0  0  0  0  0
   50.6850   83.1330   21.2650 O   0  0  0  0  0  0  0  0  0  0  0  0
   52.3030   82.2180   23.5570 C   0  0  0  0  0  0  0  0  0  0  0  0
   53.1900   81.8560   24.5730 C   0  0  0  0  0  0  0  0  0  0  0  0
   52.5942   78.1749   27.7287 H   0  0  0  0  0  0  0  0  0  0  0  0
   52.1777   78.9717   26.1737 H   0  0  0  0  0  0  0  0  0  0  0  0
   53.0837   77.4207   26.1737 H   0  0  0  0  0  0  0  0  0  0  0  0
   54.9457   78.0248   28.4656 H   0  0  0  0  0  0  0  0  0  0  0  0
   57.3148   79.0665   31.0920 H   0  0  0  0  0  0  0  0  0  0  0  0
   55.7327   79.1677   30.2474 H   0  0  0  0  0  0  0  0  0  0  0  0
   56.6537   77.6255   30.2474 H   0  0  0  0  0  0  0  0  0  0  0  0
   58.4540   80.4244   30.3801 H   0  0  0  0  0  0  0  0  0  0  0  0
   59.3858   80.1578   28.8678 H   0  0  0  0  0  0  0  0  0  0  0  0
   57.9713   81.2649   28.8678 H   0  0  0  0  0  0  0  0  0  0  0  0
   58.7767   77.4668   29.3069 H   0  0  0  0  0  0  0  0  0  0  0  0
   57.7675   77.2990   27.8304 H   0  0  0  0  0  0  0  0  0  0  0  0
   59.1822   78.4060   27.8304 H   0  0  0  0  0  0  0  0  0  0  0  0
   57.6329   81.0322   26.9383 H   0  0  0  0  0  0  0  0  0  0  0  0
   55.9934   81.6053   25.1749 H   0  0  0  0  0  0  0  0  0  0  0  0
   53.3915   78.5002   23.9683 H   0  0  0  0  0  0  0  0  0  0  0  0
   51.8073   79.1375   22.1482 H   0  0  0  0  0  0  0  0  0  0  0  0
   48.5680   81.0240   21.2750 H   0  0  0  0  0  0  0  0  0  0  0  0
   48.8660   82.0180   22.6340 H   0  0  0  0  0  0  0  0  0  0  0  0
   52.0022   83.2687   23.4321 H   0  0  0  0  0  0  0  0  0  0  0  0
   53.5824   82.6272   25.2522 H   0  0  0  0  0  0  0  0  0  0  0  0
  1  2  1  0
  2  3  1  0
  3  4  2  0
  4  5  1  0
  5  6  1  0
  5  7  1  0
  5  8  1  0
  4  9  1  0
  9 10  2  0
 10 11  1  0
 11 12  1  0
 12 13  1  0
 13 14  2  0
 14 15  1  0
 15 16  1  0
 16 17  1  0
 16 18  2  0
 16 19  2  0
 15 20  2  0
 20 21  1  0
 11  2  2  0
 21 12  2  0
  1 22  1  0
  1 23  1  0
  1 24  1  0
  3 25  1  0
  6 26  1  0
  6 27  1  0
  6 28  1  0
  7 29  1  0
  7 30  1  0
  7 31  1  0
  8 32  1  0
  8 33  1  0
  8 34  1  0
  9 35  1  0
 10 36  1  0
 13 37  1  0
 14 38  1  0
 17 39  1  0
 17 40  1  0
 20 41  1  0
 21 42  1  0
M  END
>  <meeko>  (1) 
{"is_sidechain": false}

>  <smiles>  (1) 
Cc1cc(C(C)(C)C)ccc1-c1ccc(S(N)(=O)=O)cc1

>  <vina_score>  (1) 
-8.016

>  <job_id>  (1) 
1650a6e6ec3ef71c

$$$$

     RDKit          3D

 56 60  0  0  0  0  0  0  0  0999 V2000
   50.4220   81.3570   21.3720 N   0  0  0  0  0  0  0  0  0  0  0  0
   51.8250   82.2500   21.6450 S   0  0  0  0  0  0  0  0  0  0  0  0
   52.7990   81.7320   20.7120 O   0  0  0  0  0  0  0  0  0  0  0  0
   51.4600   83.6450   21.6960 O   0  0  0  0  0  0  0  0  0  0  0  0
   52.2630   81.7200   23.2780 C   0  0  0  0  0  0  0  0  0  0  0  0
   52.3320   80.3560   23.5730 C   0  0  0  0  0  0  0  0  0  0  0  0
   52.6740   79.9520   24.8650 C   0  0  0  0  0  0  0  0  0  0  0  0
   52.9400   80.8990   25.8600 C   0  0  0  0  0  0  0  0  0  0  0  0
   53.3100   80.4860   27.1450 N   0  0  0  0  0  0  0  0  0  0  0  0
   54.4990   80.0000   27.3320 C   0  0  0  0  0  0  0  0  0  0  0  0
   55.4140   79.8700   26.3230 N   0  0  0  0  0  0  0  0  0  0  0  0
   56.6360   80.2320   26.5490 C   0  0  0  0  0  0  0  0  0  0  0  0
   57.0780   80.7510   27.7410 N   0  0  0  0  0  0  0  0  0  0  0  0
   58.0570   80.1060   28.1750 N   0  0  0  0  0  0  0  0  0  0  0  0
   58.4890   80.6390   29.4030 C   0  0  0  0  0  0  0  0  0  0  0  0
   58.8200   81.9950   29.4840 C   0  0  0  0  0  0  0  0  0  0  0  0
   59.2290   82.5570   30.6970 C   0  0  0  0  0  0  0  0  0  0  0  0
   59.2990   81.7710   31.8510 C   0  0  0  0  0  0  0  0  0  0  0  0
   59.8310   82.4910   33.3910 S   0  0  0  0  0  0  0  0  0  0  0  0
   61.4790   82.0590   33.3190 C   0  0  0  0  0  0  0  0  0  0  0  0
   61.9660   80.7900   33.9560 C   0  0  0  0  0  0  0  0  0  0  0  0
   61.3140   79.9650   34.5700 O   0  0  0  0  0  0  0  0  0  0  0  0
   63.3190   80.7320   33.7050 N   0  0  0  0  0  0  0  0  0  0  0  0
   63.7150   81.8130   32.9950 C   0  0  0  0  0  0  0  0  0  0  0  0
   64.9350   82.1070   32.5400 C   0  0  0  0  0  0  0  0  0  0  0  0
   65.1370   83.3260   31.7720 C   0  0  0  0  0  0  0  0  0  0  0  0
   64.1390   84.1980   31.5030 C   0  0  0  0  0  0  0  0  0  0  0  0
   64.3140   85.3630   30.7790 N   0  0  0  0  0  0  0  0  0  0  0  0
   63.3010   86.2600   30.5590 C   0  0  0  0  0  0  0  0  0  0  0  0
   62.0610   86.0490   31.0200 C   0  0  0  0  0  0  0  0  0  0  0  0
   61.7870   84.8340   31.7710 C   0  0  0  0  0  0  0  0  0  0  0  0
   62.7490   83.9140   32.0190 C   0  0  0  0  0  0  0  0  0  0  0  0
   62.5520   82.6610   32.7680 C   0  0  0  0  0  0  0  0  0  0  0  0
   58.9610   80.4160   31.7780 C   0  0  0  0  0  0  0  0  0  0  0  0
   58.5520   79.8570   30.5640 C   0  0  0  0  0  0  0  0  0  0  0  0
   52.8980   82.2600   25.5400 C   0  0  0  0  0  0  0  0  0  0  0  0
   52.5580   82.6780   24.2520 C   0  0  0  0  0  0  0  0  0  0  0  0
   49.8680   81.2170   22.2160 H   0  0  0  0  0  0  0  0  0  0  0  0
   50.6780   80.4720   20.9310 H   0  0  0  0  0  0  0  0  0  0  0  0
   52.1190   79.6080   22.7951 H   0  0  0  0  0  0  0  0  0  0  0  0
   52.7348   78.8797   25.1027 H   0  0  0  0  0  0  0  0  0  0  0  0
   54.7832   79.6789   28.3450 H   0  0  0  0  0  0  0  0  0  0  0  0
   57.3666   80.1166   25.7348 H   0  0  0  0  0  0  0  0  0  0  0  0
   58.7580   82.6256   28.5848 H   0  0  0  0  0  0  0  0  0  0  0  0
   59.4970   83.6228   30.7436 H   0  0  0  0  0  0  0  0  0  0  0  0
   63.9020   79.9700   34.0160 H   0  0  0  0  0  0  0  0  0  0  0  0
   65.7804   81.4334   32.7440 H   0  0  0  0  0  0  0  0  0  0  0  0
   66.1457   83.5481   31.3936 H   0  0  0  0  0  0  0  0  0  0  0  0
   65.2440   85.5900   30.4450 H   0  0  0  0  0  0  0  0  0  0  0  0
   63.5118   87.1769   29.9891 H   0  0  0  0  0  0  0  0  0  0  0  0
   61.2630   86.7828   30.8336 H   0  0  0  0  0  0  0  0  0  0  0  0
   60.7690   84.6574   32.1484 H   0  0  0  0  0  0  0  0  0  0  0  0
   59.0172   79.7878   32.6792 H   0  0  0  0  0  0  0  0  0  0  0  0
   58.2769   78.7929   30.5196 H   0  0  0  0  0  0  0  0  0  0  0  0
   53.1352   83.0083   26.3106 H   0  0  0  0  0  0  0  0  0  0  0  0
   52.5227   83.7497   24.0065 H   0  0  0  0  0  0  0  0  0  0  0  0
  1  2  1  0
  2  3  2  0
  2  4  2  0
  2  5  1  0
  5  6  1  0
  6  7  2  0
  7  8  1  0
  8  9  1  0
  9 10  2  3
 10 11  1  0
 11 12  2  3
 12 13  1  0
 13 14  2  3
 14 15  1  0
 15 16  1  0
 16 17  2  0
 17 18  1  0
 18 19  1  0
 19 20  1  0
 20 21  1  0
 21 22  2  0
 21 23  1  0
 23 24  1  0
 24 25  2  0
 25 26  1  0
 26 27  2  0
 27 28  1  0
 28 29  1  0
 29 30  2  0
 30 31  1  0
 31 32  2  0
 32 33  1  0
 18 34  2  0
 34 35  1  0
  8 36  2  0
 36 37  1  0
 37  5  2  0
 35 15  2  0
 33 20  2  0
 33 24  1  0
 32 27  1  0
  1 38  1  0
  1 39  1  0
  6 40  1  0
  7 41  1  0
 10 42  1  0
 12 43  1  0
 16 44  1  0
 17 45  1  0
 23 46  1  0
 25 47  1  0
 26 48  1  0
 28 49  1  0
 29 50  1  0
 30 51  1  0
 31 52  1  0
 34 53  1  0
 35 54  1  0
 36 55  1  0
 37 56  1  0
M  END
>  <meeko>  (1) 
{"is_sidechain": false}

>  <smiles>  (1) 
NS(=O)(=O)c1ccc(N=CN=CN=Nc2ccc(Sc3c(=O)[nH]c4ccc5[nH]cccc5c34)cc2)cc1

>  <vina_score>  (1) 
-8.511

>  <job_id>  (1) 
18a85de5698ca626

$$$$

     RDKit          3D

 58 61  0  0  0  0  0  0  0  0999 V2000
   60.0940   80.6070   36.3270 C   0  0  0  0  0  0  0  0  0  0  0  0
   60.7140   80.3580   34.9790 C   0  0  0  0  0  0  0  0  0  0  0  0
   61.8260   79.8570   34.8540 O   0  0  0  0  0  0  0  0  0  0  0  0
   59.9280   80.7560   33.9180 N   0  0  0  0  0  0  0  0  0  0  0  0
   60.4200   80.7010   32.5460 C   0  0  2  0  0  0  0  0  0  0  0  0
   60.9840   82.0620   32.1030 C   0  0  0  0  0  0  0  0  0  0  0  0
   59.9410   82.8900   31.3630 C   0  0  0  0  0  0  0  0  0  0  0  0
   59.4490   82.1870   30.0950 C   0  0  0  0  0  0  0  0  0  0  0  0
   59.5140   80.6500   30.1750 C   0  0  0  0  0  0  0  0  0  0  0  0
   58.5010   79.9780   29.2400 C   0  0  0  0  0  0  0  0  0  0  0  0
   58.5580   80.0990   28.0200 O   0  0  0  0  0  0  0  0  0  0  0  0
   57.5570   79.2460   29.9250 N   0  0  0  0  0  0  0  0  0  0  0  0
   56.4770   78.5270   29.4130 C   0  0  0  0  0  0  0  0  0  0  0  0
   55.7200   78.9190   28.3180 C   0  0  0  0  0  0  0  0  0  0  0  0
   54.6540   78.1090   27.8840 C   0  0  0  0  0  0  0  0  0  0  0  0
   53.8740   78.5430   26.7410 C   0  0  0  0  0  0  0  0  0  0  0  0
   53.3140   77.8200   25.6420 C   0  0  0  0  0  0  0  0  0  0  0  0
   52.6350   78.6010   24.7840 N   0  0  0  0  0  0  0  0  0  0  0  0
   52.7710   79.7960   25.3420 N   0  0  0  0  0  0  0  0  0  0  0  0
   53.4810   79.8340   26.4920 C   0  0  0  0  0  0  0  0  0  0  0  0
   53.5600   81.2140   27.0110 C   0  0  0  0  0  0  0  0  0  0  0  0
   53.0700   82.0690   25.7840 C   0  0  0  0  0  0  0  0  0  0  0  0
   54.2810   82.6220   25.0120 C   0  0  0  0  0  0  0  0  0  0  0  0
   52.1860   83.2320   26.2400 C   0  0  0  0  0  0  0  0  0  0  0  0
   52.2710   81.0780   24.8830 C   0  0  0  0  0  0  0  0  0  0  0  0
   54.3880   76.9280   28.5810 C   0  0  0  0  0  0  0  0  0  0  0  0
   53.1470   75.8130   28.1490 Cl  0  0  0  0  0  0  0  0  0  0  0  0
   55.1940   76.6260   29.6680 C   0  0  0  0  0  0  0  0  0  0  0  0
   56.2230   77.3950   30.0980 N   0  0  0  0  0  0  0  0  0  0  0  0
   59.3090   80.1810   31.6190 C   0  0  0  0  0  0  0  0  0  0  0  0
   60.8052   80.3214   37.1161 H   0  0  0  0  0  0  0  0  0  0  0  0
   59.8465   81.6743   36.4252 H   0  0  0  0  0  0  0  0  0  0  0  0
   59.1770   80.0074   36.4252 H   0  0  0  0  0  0  0  0  0  0  0  0
   59.1420   81.3620   34.1160 H   0  0  0  0  0  0  0  0  0  0  0  0
   61.2599   79.9932   32.4857 H   0  0  0  0  0  0  0  0  0  0  0  0
   61.3145   82.6177   32.9929 H   0  0  0  0  0  0  0  0  0  0  0  0
   61.8250   81.8783   31.4182 H   0  0  0  0  0  0  0  0  0  0  0  0
   59.0835   83.0608   32.0305 H   0  0  0  0  0  0  0  0  0  0  0  0
   60.4081   83.8407   31.0664 H   0  0  0  0  0  0  0  0  0  0  0  0
   58.4042   82.4818   29.9175 H   0  0  0  0  0  0  0  0  0  0  0  0
   60.1164   82.4951   29.2767 H   0  0  0  0  0  0  0  0  0  0  0  0
   60.5162   80.3463   29.8384 H   0  0  0  0  0  0  0  0  0  0  0  0
   57.6370   79.1410   30.9280 H   0  0  0  0  0  0  0  0  0  0  0  0
   55.9517   79.8571   27.7924 H   0  0  0  0  0  0  0  0  0  0  0  0
   53.4274   76.7337   25.5116 H   0  0  0  0  0  0  0  0  0  0  0  0
   52.8990   81.3503   27.8796 H   0  0  0  0  0  0  0  0  0  0  0  0
   54.5634   81.4919   27.3658 H   0  0  0  0  0  0  0  0  0  0  0  0
   55.0428   82.9699   25.7252 H   0  0  0  0  0  0  0  0  0  0  0  0
   54.7060   81.8287   24.3795 H   0  0  0  0  0  0  0  0  0  0  0  0
   53.9598   83.4627   24.3795 H   0  0  0  0  0  0  0  0  0  0  0  0
   52.1612   83.2646   27.3392 H   0  0  0  0  0  0  0  0  0  0  0  0
   52.5957   84.1772   25.8543 H   0  0  0  0  0  0  0  0  0  0  0  0
   51.1657   83.0902   25.8543 H   0  0  0  0  0  0  0  0  0  0  0  0
   51.1875   81.1689   25.0496 H   0  0  0  0  0  0  0  0  0  0  0  0
   52.4030   81.2489   23.8044 H   0  0  0  0  0  0  0  0  0  0  0  0
   54.9833   75.6978   30.2194 H   0  0  0  0  0  0  0  0  0  0  0  0
   58.3390   80.5528   31.9808 H   0  0  0  0  0  0  0  0  0  0  0  0
   59.3374   79.0814   31.6310 H   0  0  0  0  0  0  0  0  0  0  0  0
  1  2  1  0
  2  3  2  0
  2  4  1  0
  4  5  1  0
  5  6  1  0
  6  7  1  0
  7  8  1  0
  8  9  1  0
  9 10  1  0
 10 11  2  0
 10 12  1  0
 12 13  1  0
 13 14  2  0
 14 15  1  0
 15 16  1  0
 16 17  1  0
 17 18  2  0
 18 19  1  0
 19 20  1  0
 20 21  1  0
 21 22  1  0
 22 23  1  0
 22 24  1  0
 22 25  1  0
 15 26  2  0
 26 27  1  0
 26 28  1  0
 28 29  2  0
  9 30  1  0
 30  5  1  0
 29 13  1  0
 20 16  2  0
 25 19  1  0
  1 31  1  0
  1 32  1  0
  1 33  1  0
  4 34  1  0
  5 35  1  1
  6 36  1  0
  6 37  1  0
  7 38  1  0
  7 39  1  0
  8 40  1  0
  8 41  1  0
  9 42  1  0
 12 43  1  0
 14 44  1  0
 17 45  1  0
 21 46  1  0
 21 47  1  0
 23 48  1  0
 23 49  1  0
 23 50  1  0
 24 51  1  0
 24 52  1  0
 24 53  1  0
 25 54  1  0
 25 55  1  0
 28 56  1  0
 30 57  1  0
 30 58  1  0
M  END
>  <meeko>  (1) 
{"is_sidechain": false}

>  <smiles>  (1) 
CC(=O)N[C@@H]1CCCC(C(=O)Nc2cc(-c3cnn4c3CC(C)(C)C4)c(Cl)cn2)C1

>  <vina_score>  (1) 
-8.508

>  <job_id>  (1) 
1b8626fa3d61671c

$$$$

     RDKit          3D

 60 63  0  0  0  0  0  0  0  0999 V2000
   53.3120   82.4700   27.2630 C   0  0  0  0  0  0  0  0  0  0  0  0
   53.0290   82.0570   25.8420 C   0  0  0  0  0  0  0  0  0  0  0  0
   53.3050   82.8040   24.9020 O   0  0  0  0  0  0  0  0  0  0  0  0
   52.4510   80.6630   25.6550 C   0  0  0  0  0  0  0  0  0  0  0  0
   53.7270   79.4560   25.2000 S   0  0  0  0  0  0  0  0  0  0  0  0
   53.8720   78.6390   26.7530 C   0  0  0  0  0  0  0  0  0  0  0  0
   52.9760   77.9020   27.1490 O   0  0  0  0  0  0  0  0  0  0  0  0
   55.0810   78.8980   27.5860 C   0  0  0  0  0  0  0  0  0  0  0  0
   56.0620   79.8380   27.2540 C   0  0  0  0  0  0  0  0  0  0  0  0
   57.1750   80.0190   28.0870 C   0  0  0  0  0  0  0  0  0  0  0  0
   57.3460   79.2740   29.2640 C   0  0  0  0  0  0  0  0  0  0  0  0
   58.4810   79.5100   30.0450 N   0  0  0  0  0  0  0  0  0  0  0  0
   58.7470   80.3070   31.1530 C   0  0  0  0  0  0  0  0  0  0  0  0
   57.8100   80.6070   32.0620 N   0  0  0  0  0  0  0  0  0  0  0  0
   58.1750   81.3930   33.0930 C   0  0  0  0  0  0  0  0  0  0  0  0
   59.4430   81.8890   33.2570 C   0  0  0  0  0  0  0  0  0  0  0  0
   59.7230   82.6800   34.3000 F   0  0  0  0  0  0  0  0  0  0  0  0
   60.3630   81.5400   32.2930 C   0  0  0  0  0  0  0  0  0  0  0  0
   61.7690   81.9880   32.3420 C   0  0  0  0  0  0  0  0  0  0  0  0
   62.5980   81.3710   33.2170 N   0  0  0  0  0  0  0  0  0  0  0  0
   63.8780   81.7980   33.2490 C   0  0  0  0  0  0  0  0  0  0  0  0
   64.3550   82.8080   32.4570 C   0  0  0  0  0  0  0  0  0  0  0  0
   65.6370   83.1900   32.5240 F   0  0  0  0  0  0  0  0  0  0  0  0
   63.4390   83.3960   31.6090 C   0  0  0  0  0  0  0  0  0  0  0  0
   63.8110   84.4560   30.6820 C   0  0  0  0  0  0  0  0  0  0  0  0
   64.6160   84.3570   29.5620 C   0  0  0  0  0  0  0  0  0  0  0  0
   64.7260   85.5470   28.9080 N   0  0  0  0  0  0  0  0  0  0  0  0
   64.0070   86.4010   29.6040 C   0  0  0  0  0  0  0  0  0  0  0  0
   63.8200   87.8300   29.2380 C   0  0  0  0  0  0  0  0  0  0  0  0
   63.4550   85.7940   30.7260 N   0  0  0  0  0  0  0  0  0  0  0  0
   62.7060   86.5170   31.7530 C   0  0  0  0  0  0  0  0  0  0  0  0
   61.1940   86.3420   31.6080 C   0  0  0  0  0  0  0  0  0  0  0  0
   63.1830   86.2770   33.1880 C   0  0  0  0  0  0  0  0  0  0  0  0
   62.1490   83.0010   31.5350 N   0  0  0  0  0  0  0  0  0  0  0  0
   60.0120   80.7480   31.2380 N   0  0  0  0  0  0  0  0  0  0  0  0
   56.3640   78.3330   29.5790 C   0  0  0  0  0  0  0  0  0  0  0  0
   55.2470   78.1420   28.7520 C   0  0  0  0  0  0  0  0  0  0  0  0
   52.8280   81.7636   27.9535 H   0  0  0  0  0  0  0  0  0  0  0  0
   54.3982   82.4663   27.4365 H   0  0  0  0  0  0  0  0  0  0  0  0
   52.9164   83.4816   27.4365 H   0  0  0  0  0  0  0  0  0  0  0  0
   51.9798   80.3443   26.5965 H   0  0  0  0  0  0  0  0  0  0  0  0
   51.7159   80.7059   24.8378 H   0  0  0  0  0  0  0  0  0  0  0  0
   55.9600   80.4368   26.3369 H   0  0  0  0  0  0  0  0  0  0  0  0
   57.9347   80.7650   27.8106 H   0  0  0  0  0  0  0  0  0  0  0  0
   59.3270   79.0250   29.7830 H   0  0  0  0  0  0  0  0  0  0  0  0
   57.4145   81.6512   33.8446 H   0  0  0  0  0  0  0  0  0  0  0  0
   64.5737   81.3095   33.9472 H   0  0  0  0  0  0  0  0  0  0  0  0
   65.1086   83.4284   29.2379 H   0  0  0  0  0  0  0  0  0  0  0  0
   63.7408   88.4355   30.1529 H   0  0  0  0  0  0  0  0  0  0  0  0
   64.6810   88.1724   28.6452 H   0  0  0  0  0  0  0  0  0  0  0  0
   62.8999   87.9393   28.6452 H   0  0  0  0  0  0  0  0  0  0  0  0
   62.9343   87.5755   31.5593 H   0  0  0  0  0  0  0  0  0  0  0  0
   60.7337   86.2887   32.6056 H   0  0  0  0  0  0  0  0  0  0  0  0
   60.7770   87.1979   31.0570 H   0  0  0  0  0  0  0  0  0  0  0  0
   60.9835   85.4135   31.0570 H   0  0  0  0  0  0  0  0  0  0  0  0
   62.4290   86.6564   33.8933 H   0  0  0  0  0  0  0  0  0  0  0  0
   63.3277   85.1988   33.3508 H   0  0  0  0  0  0  0  0  0  0  0  0
   64.1350   86.8034   33.3508 H   0  0  0  0  0  0  0  0  0  0  0  0
   56.4681   77.7299   30.4930 H   0  0  0  0  0  0  0  0  0  0  0  0
   54.4925   77.3889   29.0233 H   0  0  0  0  0  0  0  0  0  0  0  0
  1  2  1  0
  2  3  2  0
  2  4  1  0
  4  5  1  0
  5  6  1  0
  6  7  2  0
  6  8  1  0
  8  9  1  0
  9 10  2  0
 10 11  1  0
 11 12  1  0
 12 13  1  0
 13 14  2  0
 14 15  1  0
 15 16  2  0
 16 17  1  0
 16 18  1  0
 18 19  1  0
 19 20  2  0
 20 21  1  0
 21 22  2  0
 22 23  1  0
 22 24  1  0
 24 25  1  0
 25 26  2  0
 26 27  1  0
 27 28  2  0
 28 29  1  0
 28 30  1  0
 30 31  1  0
 31 32  1  0
 31 33  1  0
 24 34  2  0
 18 35  2  0
 11 36  2  0
 36 37  1  0
 37  8  2  0
 35 13  1  0
 34 19  1  0
 30 25  1  0
  1 38  1  0
  1 39  1  0
  1 40  1  0
  4 41  1  0
  4 42  1  0
  9 43  1  0
 10 44  1  0
 12 45  1  0
 15 46  1  0
 21 47  1  0
 26 48  1  0
 29 49  1  0
 29 50  1  0
 29 51  1  0
 31 52  1  0
 32 53  1  0
 32 54  1  0
 32 55  1  0
 33 56  1  0
 33 57  1  0
 33 58  1  0
 36 59  1  0
 37 60  1  0
M  END
>  <meeko>  (1) 
{"is_sidechain": false}

>  <smiles>  (1) 
CC(=O)CSC(=O)c1ccc(Nc2ncc(F)c(-c3ncc(F)c(-c4cnc(C)n4C(C)C)n3)n2)cc1

>  <vina_score>  (1) 
-7.802

>  <job_id>  (1) 
1f5efed62391f34d

$$$$

     RDKit          3D

 58 60  0  0  0  0  0  0  0  0999 V2000
   53.0480   81.5640   23.8960 C   0  0  0  0  0  0  0  0  0  0  0  0
   53.2950   80.3420   24.7060 C   0  0  0  0  0  0  0  0  0  0  0  0
   52.9360   79.1290   24.3440 N   0  0  0  0  0  0  0  0  0  0  0  0
   53.3640   78.3060   25.3410 C   0  0  0  0  0  0  0  0  0  0  0  0
   54.0110   79.0050   26.3450 C   0  0  0  0  0  0  0  0  0  0  0  0
   54.6250   78.4710   27.5520 C   0  0  0  0  0  0  0  0  0  0  0  0
   55.9060   78.8490   27.7530 N   0  0  0  0  0  0  0  0  0  0  0  0
   56.5390   78.3570   28.8330 C   0  0  0  0  0  0  0  0  0  0  0  0
   57.8550   78.7850   28.9810 N   0  0  0  0  0  0  0  0  0  0  0  0
   58.4620   79.8580   29.6380 C   0  0  0  0  0  0  0  0  0  0  0  0
   58.2600   80.0000   31.0190 C   0  0  0  0  0  0  0  0  0  0  0  0
   58.8480   81.0450   31.7410 C   0  0  0  0  0  0  0  0  0  0  0  0
   59.6620   81.9810   31.0950 C   0  0  0  0  0  0  0  0  0  0  0  0
   60.2680   83.0810   31.9060 C   0  0  0  0  0  0  0  0  0  0  0  0
   59.7630   83.3780   32.9860 O   0  0  0  0  0  0  0  0  0  0  0  0
   61.4930   83.7990   31.3580 C   0  0  0  0  0  0  0  0  0  0  0  0
   62.7620   83.4540   32.1470 C   0  0  0  0  0  0  0  0  0  0  0  0
   63.2810   82.0120   31.9620 C   0  0  0  0  0  0  0  0  0  0  0  0
   64.4910   81.9750   31.0200 C   0  0  0  0  0  0  0  0  0  0  0  0
   63.5890   81.3610   33.3120 C   0  0  0  0  0  0  0  0  0  0  0  0
   62.0310   80.4290   34.0210 Br  0  0  0  0  0  0  0  0  0  0  0  0
   59.8760   81.8510   29.7210 C   0  0  0  0  0  0  0  0  0  0  0  0
   59.2820   80.7990   29.0080 C   0  0  0  0  0  0  0  0  0  0  0  0
   55.9580   77.5210   29.7090 N   0  0  0  0  0  0  0  0  0  0  0  0
   54.6810   77.1580   29.4670 C   0  0  0  0  0  0  0  0  0  0  0  0
   53.9630   77.6020   28.3910 C   0  0  0  0  0  0  0  0  0  0  0  0
   52.6990   77.2110   28.1920 F   0  0  0  0  0  0  0  0  0  0  0  0
   53.9230   80.3290   25.9450 N   0  0  0  0  0  0  0  0  0  0  0  0
   54.3310   81.5390   26.6610 C   0  0  0  0  0  0  0  0  0  0  0  0
   53.1650   82.4970   26.9020 C   0  0  0  0  0  0  0  0  0  0  0  0
   55.5580   82.2460   26.0820 C   0  0  0  0  0  0  0  0  0  0  0  0
   52.8751   82.4192   24.5659 H   0  0  0  0  0  0  0  0  0  0  0  0
   53.9234   81.7664   23.2614 H   0  0  0  0  0  0  0  0  0  0  0  0
   52.1627   81.4105   23.2614 H   0  0  0  0  0  0  0  0  0  0  0  0
   53.2135   77.2164   25.3475 H   0  0  0  0  0  0  0  0  0  0  0  0
   58.4690   78.1060   28.5530 H   0  0  0  0  0  0  0  0  0  0  0  0
   57.6248   79.2733   31.5466 H   0  0  0  0  0  0  0  0  0  0  0  0
   58.6688   81.1306   32.8229 H   0  0  0  0  0  0  0  0  0  0  0  0
   61.6368   83.5049   30.3078 H   0  0  0  0  0  0  0  0  0  0  0  0
   61.3208   84.8817   31.4480 H   0  0  0  0  0  0  0  0  0  0  0  0
   63.5574   84.1449   31.8307 H   0  0  0  0  0  0  0  0  0  0  0  0
   62.4947   83.5475   33.2099 H   0  0  0  0  0  0  0  0  0  0  0  0
   62.4832   81.4209   31.4886 H   0  0  0  0  0  0  0  0  0  0  0  0
   65.4168   81.9467   31.6133 H   0  0  0  0  0  0  0  0  0  0  0  0
   64.4345   81.0782   30.3856 H   0  0  0  0  0  0  0  0  0  0  0  0
   64.4894   82.8736   30.3856 H   0  0  0  0  0  0  0  0  0  0  0  0
   64.4098   80.6401   33.1832 H   0  0  0  0  0  0  0  0  0  0  0  0
   63.8732   82.1518   34.0219 H   0  0  0  0  0  0  0  0  0  0  0  0
   60.5135   82.5771   29.1953 H   0  0  0  0  0  0  0  0  0  0  0  0
   59.4658   80.7123   27.9269 H   0  0  0  0  0  0  0  0  0  0  0  0
   54.1922   76.4692   30.1717 H   0  0  0  0  0  0  0  0  0  0  0  0
   54.6631   81.1753   27.6446 H   0  0  0  0  0  0  0  0  0  0  0  0
   53.0116   82.6230   27.9839 H   0  0  0  0  0  0  0  0  0  0  0  0
   53.3922   83.4727   26.4478 H   0  0  0  0  0  0  0  0  0  0  0  0
   52.2519   82.0848   26.4478 H   0  0  0  0  0  0  0  0  0  0  0  0
   56.1921   82.6114   26.9032 H   0  0  0  0  0  0  0  0  0  0  0  0
   56.1304   81.5393   25.4633 H   0  0  0  0  0  0  0  0  0  0  0  0
   55.2336   83.0957   25.4633 H   0  0  0  0  0  0  0  0  0  0  0  0
  1  2  1  0
  2  3  2  0
  3  4  1  0
  4  5  2  0
  5  6  1  0
  6  7  2  0
  7  8  1  0
  8  9  1  0
  9 10  1  0
 10 11  1  0
 11 12  2  0
 12 13  1  0
 13 14  1  0
 14 15  2  0
 14 16  1  0
 16 17  1  0
 17 18  1  0
 18 19  1  0
 18 20  1  0
 20 21  1  0
 13 22  2  0
 22 23  1  0
  8 24  2  0
 24 25  1  0
 25 26  2  0
 26 27  1  0
  5 28  1  0
 28 29  1  0
 29 30  1  0
 29 31  1  0
 28  2  1  0
 26  6  1  0
 23 10  2  0
  1 32  1  0
  1 33  1  0
  1 34  1  0
  4 35  1  0
  9 36  1  0
 11 37  1  0
 12 38  1  0
 16 39  1  0
 16 40  1  0
 17 41  1  0
 17 42  1  0
 18 43  1  0
 19 44  1  0
 19 45  1  0
 19 46  1  0
 20 47  1  0
 20 48  1  0
 22 49  1  0
 23 50  1  0
 25 51  1  0
 29 52  1  0
 30 53  1  0
 30 54  1  0
 30 55  1  0
 31 56  1  0
 31 57  1  0
 31 58  1  0
M  END
>  <meeko>  (1) 
{"is_sidechain": false}

>  <smiles>  (1) 
Cc1ncc(-c2nc(Nc3ccc(C(=O)CCC(C)CBr)cc3)ncc2F)n1C(C)C

>  <vina_score>  (1) 
-8.451

>  <job_id>  (1) 
210e52abf38518da

$$$$

     RDKit          3D

 60 63  0  0  0  0  0  0  0  0999 V2000
   61.6260   81.9020   35.2070 C   0  0  0  0  0  0  0  0  0  0  0  0
   60.7230   82.2020   34.0380 C   0  0  0  0  0  0  0  0  0  0  0  0
   60.0600   83.2330   34.0090 O   0  0  0  0  0  0  0  0  0  0  0  0
   60.7830   81.2200   33.0650 N   0  0  0  0  0  0  0  0  0  0  0  0
   60.0760   81.1740   31.8460 C   0  0  0  0  0  0  0  0  0  0  0  0
   59.0310   80.2470   31.7480 C   0  0  0  0  0  0  0  0  0  0  0  0
   58.2790   80.1390   30.5740 C   0  0  0  0  0  0  0  0  0  0  0  0
   58.5590   80.9570   29.4720 C   0  0  0  0  0  0  0  0  0  0  0  0
   57.7370   80.8500   28.2120 C   0  0  0  0  0  0  0  0  0  0  0  0
   57.1700   79.5270   28.1170 N   0  0  0  0  0  0  0  0  0  0  0  0
   55.8870   79.3200   27.6540 C   0  0  0  0  0  0  0  0  0  0  0  0
   55.2370   80.1600   26.9020 N   0  0  0  0  0  0  0  0  0  0  0  0
   53.9500   79.8540   26.4860 C   0  0  0  0  0  0  0  0  0  0  0  0
   53.3160   80.7790   25.6880 N   0  0  0  0  0  0  0  0  0  0  0  0
   52.8460   82.0620   26.1960 C   0  0  0  0  0  0  0  0  0  0  0  0
   53.0120   83.0160   25.0200 C   0  0  0  0  0  0  0  0  0  0  0  0
   52.7520   82.1200   23.8220 C   0  0  0  0  0  0  0  0  0  0  0  0
   53.4300   80.8010   24.2260 C   0  0  2  0  0  0  0  0  0  0  0  0
   52.7540   79.6020   23.5460 C   0  0  0  0  0  0  0  0  0  0  0  0
   51.4350   79.9390   23.1140 O   0  0  0  0  0  0  0  0  0  0  0  0
   53.3260   78.7480   26.8140 N   0  0  0  0  0  0  0  0  0  0  0  0
   53.9760   77.8630   27.6080 C   0  0  0  0  0  0  0  0  0  0  0  0
   53.6540   76.6400   28.1630 C   0  0  0  0  0  0  0  0  0  0  0  0
   52.3700   75.8810   28.0170 C   0  0  0  0  0  0  0  0  0  0  0  0
   52.1850   75.3570   26.5920 C   0  0  0  0  0  0  0  0  0  0  0  0
   51.1650   76.7220   28.4410 C   0  0  0  0  0  0  0  0  0  0  0  0
   54.8140   76.2820   28.9050 C   0  0  0  0  0  0  0  0  0  0  0  0
   55.7900   77.1960   28.8320 N   0  0  0  0  0  0  0  0  0  0  0  0
   55.2450   78.1340   28.0230 N   0  0  0  0  0  0  0  0  0  0  0  0
   59.5980   81.8890   29.5750 C   0  0  0  0  0  0  0  0  0  0  0  0
   60.3510   81.9940   30.7520 C   0  0  0  0  0  0  0  0  0  0  0  0
   61.0824   82.0826   36.1461 H   0  0  0  0  0  0  0  0  0  0  0  0
   61.9441   80.8499   35.1640 H   0  0  0  0  0  0  0  0  0  0  0  0
   62.5105   82.5546   35.1640 H   0  0  0  0  0  0  0  0  0  0  0  0
   61.4120   80.4470   33.2390 H   0  0  0  0  0  0  0  0  0  0  0  0
   58.7991   79.5965   32.6042 H   0  0  0  0  0  0  0  0  0  0  0  0
   57.4611   79.4058   30.5155 H   0  0  0  0  0  0  0  0  0  0  0  0
   56.9276   81.5945   28.2382 H   0  0  0  0  0  0  0  0  0  0  0  0
   58.3795   81.0364   27.3388 H   0  0  0  0  0  0  0  0  0  0  0  0
   57.4520   78.8750   28.8500 H   0  0  0  0  0  0  0  0  0  0  0  0
   51.7907   81.9979   26.4998 H   0  0  0  0  0  0  0  0  0  0  0  0
   53.4025   82.3910   27.0859 H   0  0  0  0  0  0  0  0  0  0  0  0
   52.2801   83.8357   25.0682 H   0  0  0  0  0  0  0  0  0  0  0  0
   53.9963   83.5064   24.9921 H   0  0  0  0  0  0  0  0  0  0  0  0
   51.6732   81.9774   23.6612 H   0  0  0  0  0  0  0  0  0  0  0  0
   53.1359   82.5345   22.8782 H   0  0  0  0  0  0  0  0  0  0  0  0
   54.4806   80.7330   23.9071 H   0  0  0  0  0  0  0  0  0  0  0  0
   53.3520   79.2979   22.6742 H   0  0  0  0  0  0  0  0  0  0  0  0
   52.6868   78.7780   24.2716 H   0  0  0  0  0  0  0  0  0  0  0  0
   51.5150   80.2590   22.1980 H   0  0  0  0  0  0  0  0  0  0  0  0
   52.4332   75.0152   28.6926 H   0  0  0  0  0  0  0  0  0  0  0  0
   51.8190   74.3203   26.6272 H   0  0  0  0  0  0  0  0  0  0  0  0
   51.4546   75.9859   26.0620 H   0  0  0  0  0  0  0  0  0  0  0  0
   53.1484   75.3879   26.0620 H   0  0  0  0  0  0  0  0  0  0  0  0
   51.1119   76.7591   29.5391 H   0  0  0  0  0  0  0  0  0  0  0  0
   51.2723   77.7424   28.0444 H   0  0  0  0  0  0  0  0  0  0  0  0
   50.2442   76.2694   28.0444 H   0  0  0  0  0  0  0  0  0  0  0  0
   54.9004   75.3486   29.4806 H   0  0  0  0  0  0  0  0  0  0  0  0
   59.8259   82.5461   28.7228 H   0  0  0  0  0  0  0  0  0  0  0  0
   61.1663   82.7298   30.8136 H   0  0  0  0  0  0  0  0  0  0  0  0
  1  2  1  0
  2  3  2  0
  2  4  1  0
  4  5  1  0
  5  6  1  0
  6  7  2  0
  7  8  1  0
  8  9  1  0
  9 10  1  0
 10 11  1  0
 11 12  2  0
 12 13  1  0
 13 14  1  0
 14 15  1  0
 15 16  1  0
 16 17  1  0
 17 18  1  0
 18 19  1  0
 19 20  1  0
 13 21  2  0
 21 22  1  0
 22 23  2  0
 23 24  1  0
 24 25  1  0
 24 26  1  0
 23 27  1  0
 27 28  2  0
 28 29  1  0
  8 30  2  0
 30 31  1  0
 31  5  2  0
 29 11  1  0
 18 14  1  0
 29 22  1  0
  1 32  1  0
  1 33  1  0
  1 34  1  0
  4 35  1  0
  6 36  1  0
  7 37  1  0
  9 38  1  0
  9 39  1  0
 10 40  1  0
 15 41  1  0
 15 42  1  0
 16 43  1  0
 16 44  1  0
 17 45  1  0
 17 46  1  0
 18 47  1  1
 19 48  1  0
 19 49  1  0
 20 50  1  0
 24 51  1  0
 25 52  1  0
 25 53  1  0
 25 54  1  0
 26 55  1  0
 26 56  1  0
 26 57  1  0
 27 58  1  0
 30 59  1  0
 31 60  1  0
M  END
>  <meeko>  (1) 
{"is_sidechain": false}

>  <smiles>  (1) 
CC(=O)Nc1ccc(CNc2nc(N3CCC[C@@H]3CO)nc3c(C(C)C)cnn23)cc1

>  <vina_score>  (1) 
-8.720

>  <job_id>  (1) 
2479f17ef757167e

$$$$

     RDKit          3D

 44 47  0  0  0  0  0  0  0  0999 V2000
   63.4610   88.9880   31.8660 C   0  0  0  0  0  0  0  0  0  0  0  0
   62.6650   87.7390   31.6300 C   0  0  0  0  0  0  0  0  0  0  0  0
   61.2640   87.7840   31.6080 C   0  0  0  0  0  0  0  0  0  0  0  0
   60.5100   86.6200   31.4190 C   0  0  0  0  0  0  0  0  0  0  0  0
   59.0810   86.7790   31.3920 N   0  0  0  0  0  0  0  0  0  0  0  0
   58.5210   88.0230   30.8040 C   0  0  0  0  0  0  0  0  0  0  0  0
   57.1020   88.1600   31.3520 C   0  0  0  0  0  0  0  0  0  0  0  0
   57.1850   87.7720   32.8180 C   0  0  0  0  0  0  0  0  0  0  0  0
   58.2390   86.3340   32.8260 S   0  0  0  0  0  0  0  0  0  0  0  0
   57.4350   85.1710   32.5200 O   0  0  0  0  0  0  0  0  0  0  0  0
   59.1070   86.3920   33.9800 O   0  0  0  0  0  0  0  0  0  0  0  0
   61.1590   85.3920   31.2350 C   0  0  0  0  0  0  0  0  0  0  0  0
   60.3950   84.2720   31.0210 O   0  0  0  0  0  0  0  0  0  0  0  0
   61.0190   83.0510   30.8190 C   0  0  0  0  0  0  0  0  0  0  0  0
   60.0640   81.9620   30.5480 C   0  0  0  0  0  0  0  0  0  0  0  0
   59.7740   81.5450   29.2400 C   0  0  0  0  0  0  0  0  0  0  0  0
   58.8910   80.4850   29.0090 C   0  0  0  0  0  0  0  0  0  0  0  0
   58.3010   79.8380   30.0890 C   0  0  0  0  0  0  0  0  0  0  0  0
   57.4350   78.8000   29.9100 O   0  0  0  0  0  0  0  0  0  0  0  0
   58.5750   80.2340   31.3920 C   0  0  0  0  0  0  0  0  0  0  0  0
   59.4560   81.2930   31.6220 C   0  0  0  0  0  0  0  0  0  0  0  0
   62.3510   82.8720   30.8470 C   0  0  0  0  0  0  0  0  0  0  0  0
   62.9790   81.6570   30.6450 O   0  0  0  0  0  0  0  0  0  0  0  0
   63.2170   84.0480   31.0940 C   0  0  0  0  0  0  0  0  0  0  0  0
   64.4350   83.9070   31.1430 O   0  0  0  0  0  0  0  0  0  0  0  0
   62.5500   85.3440   31.2730 C   0  0  0  0  0  0  0  0  0  0  0  0
   63.3060   86.5050   31.4770 C   0  0  0  0  0  0  0  0  0  0  0  0
   63.5679   89.1557   32.9479 H   0  0  0  0  0  0  0  0  0  0  0  0
   64.4569   88.8795   31.4116 H   0  0  0  0  0  0  0  0  0  0  0  0
   62.9421   89.8449   31.4116 H   0  0  0  0  0  0  0  0  0  0  0  0
   60.7501   88.7474   31.7411 H   0  0  0  0  0  0  0  0  0  0  0  0
   59.1285   88.8907   31.1007 H   0  0  0  0  0  0  0  0  0  0  0  0
   58.5208   87.9789   29.7049 H   0  0  0  0  0  0  0  0  0  0  0  0
   56.7504   89.1973   31.2497 H   0  0  0  0  0  0  0  0  0  0  0  0
   56.3931   87.5219   30.8040 H   0  0  0  0  0  0  0  0  0  0  0  0
   57.6279   88.5844   33.4128 H   0  0  0  0  0  0  0  0  0  0  0  0
   56.1971   87.5747   33.2598 H   0  0  0  0  0  0  0  0  0  0  0  0
   60.2456   82.0566   28.3880 H   0  0  0  0  0  0  0  0  0  0  0  0
   58.6652   80.1658   27.9809 H   0  0  0  0  0  0  0  0  0  0  0  0
   57.4850   78.5130   28.9830 H   0  0  0  0  0  0  0  0  0  0  0  0
   58.1004   79.7160   32.2385 H   0  0  0  0  0  0  0  0  0  0  0  0
   59.6754   81.6056   32.6536 H   0  0  0  0  0  0  0  0  0  0  0  0
   63.3150   81.3970   31.5310 H   0  0  0  0  0  0  0  0  0  0  0  0
   64.4037   86.4467   31.5169 H   0  0  0  0  0  0  0  0  0  0  0  0
  1  2  1  0
  2  3  2  0
  3  4  1  0
  4  5  1  0
  5  6  1  0
  6  7  1  0
  7  8  1  0
  8  9  1  0
  9 10  2  0
  9 11  2  0
  4 12  2  0
 12 13  1  0
 13 14  1  0
 14 15  1  0
 15 16  1  0
 16 17  2  0
 17 18  1  0
 18 19  1  0
 18 20  2  0
 20 21  1  0
 14 22  2  0
 22 23  1  0
 22 24  1  0
 24 25  2  0
 24 26  1  0
 26 27  2  0
 27  2  1  0
  9  5  1  0
 26 12  1  0
 21 15  2  0
  1 28  1  0
  1 29  1  0
  1 30  1  0
  3 31  1  0
  6 32  1  0
  6 33  1  0
  7 34  1  0
  7 35  1  0
  8 36  1  0
  8 37  1  0
 16 38  1  0
 17 39  1  0
 19 40  1  0
 20 41  1  0
 21 42  1  0
 23 43  1  0
 27 44  1  0
M  END
>  <meeko>  (1) 
{"is_sidechain": false}

>  <smiles>  (1) 
Cc1cc(N2CCCS2(=O)=O)c2oc(-c3ccc(O)cc3)c(O)c(=O)c2c1

>  <vina_score>  (1) 
-6.063

>  <job_id>  (1) 
2754c3e5a3f5fa6f

$$$$

     RDKit          3D

 41 42  0  0  0  0  0  0  0  0999 V2000
   59.7030   81.6780   29.1450 C   0  0  0  0  0  0  0  0  0  0  0  0
   59.3060   80.4190   29.9030 C   0  0  0  0  0  0  0  0  0  0  0  0
   58.8630   79.4010   28.9500 N   0  0  0  0  0  0  0  0  0  0  0  0
   57.5170   78.8600   29.2070 C   0  0  0  0  0  0  0  0  0  0  0  0
   57.0560   79.1350   30.6460 C   0  0  0  0  0  0  0  0  0  0  0  0
   56.5220   79.2160   28.1090 C   0  0  0  0  0  0  0  0  0  0  0  0
   56.8320   80.2700   27.2340 C   0  0  0  0  0  0  0  0  0  0  0  0
   55.9560   80.6410   26.2080 C   0  0  0  0  0  0  0  0  0  0  0  0
   54.7380   79.9720   26.0210 C   0  0  0  0  0  0  0  0  0  0  0  0
   53.8140   80.3620   24.9430 C   0  0  0  0  0  0  0  0  0  0  0  0
   53.5040   81.7150   24.7110 C   0  0  0  0  0  0  0  0  0  0  0  0
   52.6260   82.0910   23.6910 C   0  0  0  0  0  0  0  0  0  0  0  0
   52.0530   81.1080   22.8830 C   0  0  0  0  0  0  0  0  0  0  0  0
   50.9340   81.5660   21.5860 S   0  0  0  0  0  0  0  0  0  0  0  0
   49.4430   81.2440   22.3020 N   0  0  0  0  0  0  0  0  0  0  0  0
   51.0600   80.6110   20.5090 O   0  0  0  0  0  0  0  0  0  0  0  0
   51.0320   82.9920   21.3800 O   0  0  0  0  0  0  0  0  0  0  0  0
   52.3330   79.7570   23.0980 C   0  0  0  0  0  0  0  0  0  0  0  0
   53.2120   79.3930   24.1220 C   0  0  0  0  0  0  0  0  0  0  0  0
   54.4280   78.9220   26.8980 C   0  0  0  0  0  0  0  0  0  0  0  0
   55.3030   78.5510   27.9270 C   0  0  0  0  0  0  0  0  0  0  0  0
   59.9539   82.4738   29.8618 H   0  0  0  0  0  0  0  0  0  0  0  0
   60.5775   81.4649   28.5127 H   0  0  0  0  0  0  0  0  0  0  0  0
   58.8644   82.0051   28.5127 H   0  0  0  0  0  0  0  0  0  0  0  0
   60.1712   80.0419   30.4680 H   0  0  0  0  0  0  0  0  0  0  0  0
   58.4883   80.6513   30.6011 H   0  0  0  0  0  0  0  0  0  0  0  0
   59.5320   78.6320   28.9460 H   0  0  0  0  0  0  0  0  0  0  0  0
   57.5725   77.7630   29.1479 H   0  0  0  0  0  0  0  0  0  0  0  0
   57.7804   78.7029   31.3520 H   0  0  0  0  0  0  0  0  0  0  0  0
   56.9888   80.2209   30.8083 H   0  0  0  0  0  0  0  0  0  0  0  0
   56.0686   78.6782   30.8083 H   0  0  0  0  0  0  0  0  0  0  0  0
   57.7804   80.8135   27.3575 H   0  0  0  0  0  0  0  0  0  0  0  0
   56.2270   81.4702   25.5379 H   0  0  0  0  0  0  0  0  0  0  0  0
   53.9609   82.4902   25.3437 H   0  0  0  0  0  0  0  0  0  0  0  0
   52.3886   83.1524   23.5264 H   0  0  0  0  0  0  0  0  0  0  0  0
   48.6930   81.1070   21.6260 H   0  0  0  0  0  0  0  0  0  0  0  0
   49.2300   81.9910   22.9660 H   0  0  0  0  0  0  0  0  0  0  0  0
   51.8661   78.9862   22.4672 H   0  0  0  0  0  0  0  0  0  0  0  0
   53.4366   78.3291   24.2883 H   0  0  0  0  0  0  0  0  0  0  0  0
   53.4791   78.3793   26.7752 H   0  0  0  0  0  0  0  0  0  0  0  0
   55.0290   77.7262   28.6012 H   0  0  0  0  0  0  0  0  0  0  0  0
  1  2  1  0
  2  3  1  0
  3  4  1  0
  4  5  1  0
  4  6  1  0
  6  7  1  0
  7  8  2  0
  8  9  1  0
  9 10  1  0
 10 11  1  0
 11 12  2  0
 12 13  1  0
 13 14  1  0
 14 15  1  0
 14 16  2  0
 14 17  2  0
 13 18  2  0
 18 19  1  0
  9 20  2  0
 20 21  1  0
 21  6  2  0
 19 10  2  0
  1 22  1  0
  1 23  1  0
  1 24  1  0
  2 25  1  0
  2 26  1  0
  3 27  1  0
  4 28  1  0
  5 29  1  0
  5 30  1  0
  5 31  1  0
  7 32  1  0
  8 33  1  0
 11 34  1  0
 12 35  1  0
 15 36  1  0
 15 37  1  0
 18 38  1  0
 19 39  1  0
 20 40  1  0
 21 41  1  0
M  END
>  <meeko>  (1) 
{"is_sidechain": false}

>  <smiles>  (1) 
CCNC(C)c1ccc(-c2ccc(S(N)(=O)=O)cc2)cc1

>  <vina_score>  (1) 
-7.684

>  <job_id>  (1) 
2a7fc406b44eb094

$$$$

     RDKit          3D

 47 49  0  0  0  0  0  0  0  0999 V2000
   53.3060   82.4780   27.2670 C   0  0  0  0  0  0  0  0  0  0  0  0
   53.0090   83.3710   26.0630 C   0  0  0  0  0  0  0  0  0  0  0  0
   54.0330   84.5110   25.8890 C   0  0  0  0  0  0  0  0  0  0  0  0
   55.4760   84.1040   26.1640 C   0  0  0  0  0  0  0  0  0  0  0  0
   55.9350   84.6300   27.4000 O   0  0  0  0  0  0  0  0  0  0  0  0
   52.9600   82.5190   24.7920 C   0  0  0  0  0  0  0  0  0  0  0  0
   52.5600   82.9400   23.7110 O   0  0  0  0  0  0  0  0  0  0  0  0
   53.4140   81.2250   24.9690 N   0  0  0  0  0  0  0  0  0  0  0  0
   53.3090   80.2550   23.8960 C   0  0  0  0  0  0  0  0  0  0  0  0
   53.0100   78.8630   24.4280 C   0  0  0  0  0  0  0  0  0  0  0  0
   53.7170   78.6630   25.7330 C   0  0  0  0  0  0  0  0  0  0  0  0
   54.8690   79.2060   26.0160 N   0  0  0  0  0  0  0  0  0  0  0  0
   55.1630   78.7860   27.2750 N   0  0  0  0  0  0  0  0  0  0  0  0
   56.2040   78.9890   28.1330 C   0  0  0  0  0  0  0  0  0  0  0  0
   57.3930   79.8050   27.8000 C   0  0  0  0  0  0  0  0  0  0  0  0
   58.4910   79.3930   28.6210 O   0  0  0  0  0  0  0  0  0  0  0  0
   58.9090   80.2250   29.6210 C   0  0  0  0  0  0  0  0  0  0  0  0
   59.6690   81.3150   29.1860 C   0  0  0  0  0  0  0  0  0  0  0  0
   60.1720   82.2440   30.1000 C   0  0  0  0  0  0  0  0  0  0  0  0
   59.9200   82.0780   31.4570 C   0  0  0  0  0  0  0  0  0  0  0  0
   60.5380   83.2160   32.5890 Cl  0  0  0  0  0  0  0  0  0  0  0  0
   59.1740   80.9890   31.9030 C   0  0  0  0  0  0  0  0  0  0  0  0
   58.6700   80.0600   30.9860 C   0  0  0  0  0  0  0  0  0  0  0  0
   55.9430   78.3520   29.2700 N   0  0  0  0  0  0  0  0  0  0  0  0
   54.7160   77.7060   29.1410 N   0  0  0  0  0  0  0  0  0  0  0  0
   54.2970   77.9890   27.9430 C   0  0  0  0  0  0  0  0  0  0  0  0
   52.9350   77.6500   26.9730 S   0  0  0  0  0  0  0  0  0  0  0  0
   53.1194   83.0391   28.1946 H   0  0  0  0  0  0  0  0  0  0  0  0
   52.6539   81.5926   27.2365 H   0  0  0  0  0  0  0  0  0  0  0  0
   54.3584   82.1595   27.2365 H   0  0  0  0  0  0  0  0  0  0  0  0
   52.0335   83.8452   26.2462 H   0  0  0  0  0  0  0  0  0  0  0  0
   53.9693   84.8765   24.8534 H   0  0  0  0  0  0  0  0  0  0  0  0
   53.7759   85.2819   26.6304 H   0  0  0  0  0  0  0  0  0  0  0  0
   55.5384   83.0063   26.1968 H   0  0  0  0  0  0  0  0  0  0  0  0
   56.1090   84.5066   25.3595 H   0  0  0  0  0  0  0  0  0  0  0  0
   55.1540   84.7680   27.9650 H   0  0  0  0  0  0  0  0  0  0  0  0
   53.4600   80.8830   25.9210 H   0  0  0  0  0  0  0  0  0  0  0  0
   52.4986   80.5596   23.2174 H   0  0  0  0  0  0  0  0  0  0  0  0
   54.2727   80.2216   23.3667 H   0  0  0  0  0  0  0  0  0  0  0  0
   51.9258   78.7532   24.5781 H   0  0  0  0  0  0  0  0  0  0  0  0
   53.3587   78.1118   23.7040 H   0  0  0  0  0  0  0  0  0  0  0  0
   57.6520   79.6626   26.7405 H   0  0  0  0  0  0  0  0  0  0  0  0
   57.1745   80.8678   27.9808 H   0  0  0  0  0  0  0  0  0  0  0  0
   59.8730   81.4424   28.1126 H   0  0  0  0  0  0  0  0  0  0  0  0
   60.7639   83.1018   29.7480 H   0  0  0  0  0  0  0  0  0  0  0  0
   58.9809   80.8593   32.9781 H   0  0  0  0  0  0  0  0  0  0  0  0
   58.0849   79.1989   31.3413 H   0  0  0  0  0  0  0  0  0  0  0  0
  1  2  1  0
  2  3  1  0
  3  4  1  0
  4  5  1  0
  2  6  1  0
  6  7  2  0
  6  8  1  0
  8  9  1  0
  9 10  1  0
 10 11  1  0
 11 12  2  0
 12 13  1  0
 13 14  1  0
 14 15  1  0
 15 16  1  0
 16 17  1  0
 17 18  1  0
 18 19  2  0
 19 20  1  0
 20 21  1  0
 20 22  2  0
 22 23  1  0
 14 24  2  0
 24 25  1  0
 25 26  2  0
 26 27  1  0
 27 11  1  0
 26 13  1  0
 23 17  2  0
  1 28  1  0
  1 29  1  0
  1 30  1  0
  2 31  1  0
  3 32  1  0
  3 33  1  0
  4 34  1  0
  4 35  1  0
  5 36  1  0
  8 37  1  0
  9 38  1  0
  9 39  1  0
 10 40  1  0
 10 41  1  0
 15 42  1  0
 15 43  1  0
 18 44  1  0
 19 45  1  0
 22 46  1  0
 23 47  1  0
M  END
>  <meeko>  (1) 
{"is_sidechain": false}

>  <smiles>  (1) 
CC(CCO)C(=O)NCCc1nn2c(COc3ccc(Cl)cc3)nnc2s1

>  <vina_score>  (1) 
-7.609

>  <job_id>  (1) 
2be3fed8ce640ae0

$$$$

     RDKit          3D

 42 44  0  0  0  0  0  0  0  0999 V2000
   52.5600   81.6480   22.0500 C   0  0  0  0  0  0  0  0  0  0  0  0
   52.8620   80.6430   23.1450 C   0  0  0  0  0  0  0  0  0  0  0  0
   53.2600   81.3300   24.4380 C   0  0  0  0  0  0  0  0  0  0  0  0
   53.3100   82.5610   24.4750 O   0  0  0  0  0  0  0  0  0  0  0  0
   53.5500   80.5510   25.5490 N   0  0  0  0  0  0  0  0  0  0  0  0
   52.5600   79.8640   26.3780 C   0  0  0  0  0  0  0  0  0  0  0  0
   53.0930   78.5210   26.8780 C   0  0  0  0  0  0  0  0  0  0  0  0
   54.4440   78.6690   27.4970 C   0  0  0  0  0  0  0  0  0  0  0  0
   54.9540   77.7620   28.3950 C   0  0  0  0  0  0  0  0  0  0  0  0
   56.1770   77.8630   28.9450 N   0  0  0  0  0  0  0  0  0  0  0  0
   56.9350   78.9050   28.5770 C   0  0  0  0  0  0  0  0  0  0  0  0
   58.2130   79.1080   29.0860 N   0  0  0  0  0  0  0  0  0  0  0  0
   58.8240   80.1370   29.8100 C   0  0  0  0  0  0  0  0  0  0  0  0
   59.6850   81.0820   29.2470 C   0  0  0  0  0  0  0  0  0  0  0  0
   60.2730   82.0890   30.0240 C   0  0  0  0  0  0  0  0  0  0  0  0
   60.0160   82.1800   31.3970 C   0  0  0  0  0  0  0  0  0  0  0  0
   60.6610   83.2690   32.2040 C   0  0  0  0  0  0  0  0  0  0  0  0
   59.1580   81.2350   31.9700 C   0  0  0  0  0  0  0  0  0  0  0  0
   58.7830   81.2640   33.6580 Cl  0  0  0  0  0  0  0  0  0  0  0  0
   58.5740   80.2320   31.1870 C   0  0  0  0  0  0  0  0  0  0  0  0
   56.5270   79.8330   27.6960 N   0  0  0  0  0  0  0  0  0  0  0  0
   55.2940   79.7050   27.1550 C   0  0  0  0  0  0  0  0  0  0  0  0
   54.8660   80.7660   26.1650 C   0  0  0  0  0  0  0  0  0  0  0  0
   52.2715   82.6081   22.5029 H   0  0  0  0  0  0  0  0  0  0  0  0
   53.4549   81.7909   21.4265 H   0  0  0  0  0  0  0  0  0  0  0  0
   51.7346   81.2740   21.4265 H   0  0  0  0  0  0  0  0  0  0  0  0
   51.9653   80.0322   23.3264 H   0  0  0  0  0  0  0  0  0  0  0  0
   53.7035   80.0162   22.8148 H   0  0  0  0  0  0  0  0  0  0  0  0
   52.3152   80.4974   27.2434 H   0  0  0  0  0  0  0  0  0  0  0  0
   51.6641   79.6775   25.7677 H   0  0  0  0  0  0  0  0  0  0  0  0
   52.3976   78.1166   27.6283 H   0  0  0  0  0  0  0  0  0  0  0  0
   53.1780   77.8399   26.0185 H   0  0  0  0  0  0  0  0  0  0  0  0
   54.3262   76.9049   28.6800 H   0  0  0  0  0  0  0  0  0  0  0  0
   58.7750   78.2940   28.8790 H   0  0  0  0  0  0  0  0  0  0  0  0
   59.9062   81.0346   28.1705 H   0  0  0  0  0  0  0  0  0  0  0  0
   60.9457   82.8179   29.5485 H   0  0  0  0  0  0  0  0  0  0  0  0
   60.5344   83.0553   33.2756 H   0  0  0  0  0  0  0  0  0  0  0  0
   61.7334   83.3172   31.9639 H   0  0  0  0  0  0  0  0  0  0  0  0
   60.1879   84.2326   31.9639 H   0  0  0  0  0  0  0  0  0  0  0  0
   57.9034   79.5013   31.6628 H   0  0  0  0  0  0  0  0  0  0  0  0
   54.8422   81.7321   26.6904 H   0  0  0  0  0  0  0  0  0  0  0  0
   55.5972   80.7307   25.3440 H   0  0  0  0  0  0  0  0  0  0  0  0
  1  2  1  0
  2  3  1  0
  3  4  2  0
  3  5  1  0
  5  6  1  0
  6  7  1  0
  7  8  1  0
  8  9  2  0
  9 10  1  0
 10 11  2  0
 11 12  1  0
 12 13  1  0
 13 14  1  0
 14 15  2  0
 15 16  1  0
 16 17  1  0
 16 18  2  0
 18 19  1  0
 18 20  1  0
 11 21  1  0
 21 22  2  0
 22 23  1  0
 23  5  1  0
 22  8  1  0
 20 13  2  0
  1 24  1  0
  1 25  1  0
  1 26  1  0
  2 27  1  0
  2 28  1  0
  6 29  1  0
  6 30  1  0
  7 31  1  0
  7 32  1  0
  9 33  1  0
 12 34  1  0
 14 35  1  0
 15 36  1  0
 17 37  1  0
 17 38  1  0
 17 39  1  0
 20 40  1  0
 23 41  1  0
 23 42  1  0
M  END
>  <meeko>  (1) 
{"is_sidechain": false}

>  <smiles>  (1) 
CCC(=O)N1CCc2cnc(Nc3ccc(C)c(Cl)c3)nc2C1

>  <vina_score>  (1) 
-8.316

>  <job_id>  (1) 
2fde788d5ecae667

$$$$

     RDKit          3D

 50 52  0  0  0  0  0  0  0  0999 V2000
   54.6180   83.2270   26.8950 C   0  0  0  0  0  0  0  0  0  0  0  0
   53.3100   82.5540   27.2700 C   0  0  0  0  0  0  0  0  0  0  0  0
   53.5320   81.1440   27.2820 O   0  0  0  0  0  0  0  0  0  0  0  0
   53.4410   80.4670   26.0920 C   0  0  0  0  0  0  0  0  0  0  0  0
   52.9570   81.0340   24.9070 C   0  0  0  0  0  0  0  0  0  0  0  0
   52.8590   80.2590   23.7560 C   0  0  0  0  0  0  0  0  0  0  0  0
   52.3930   80.8140   22.6300 F   0  0  0  0  0  0  0  0  0  0  0  0
   53.2250   78.9240   23.7560 C   0  0  0  0  0  0  0  0  0  0  0  0
   53.7080   78.3500   24.9310 C   0  0  0  0  0  0  0  0  0  0  0  0
   53.8360   79.1070   26.1150 C   0  0  0  0  0  0  0  0  0  0  0  0
   54.3620   78.4560   27.3280 C   0  0  0  0  0  0  0  0  0  0  0  0
   55.6540   78.7570   27.6300 N   0  0  0  0  0  0  0  0  0  0  0  0
   56.1980   78.1930   28.7230 C   0  0  0  0  0  0  0  0  0  0  0  0
   57.5250   78.5370   28.9580 N   0  0  0  0  0  0  0  0  0  0  0  0
   58.1540   79.6510   29.5260 C   0  0  0  0  0  0  0  0  0  0  0  0
   58.9410   80.5530   28.8100 C   0  0  0  0  0  0  0  0  0  0  0  0
   59.5500   81.6250   29.4550 C   0  0  0  0  0  0  0  0  0  0  0  0
   60.2970   82.4820   28.7460 F   0  0  0  0  0  0  0  0  0  0  0  0
   59.3990   81.8300   30.8210 C   0  0  0  0  0  0  0  0  0  0  0  0
   58.6200   80.9450   31.5720 C   0  0  0  0  0  0  0  0  0  0  0  0
   58.4560   81.1460   33.0560 C   0  0  0  0  0  0  0  0  0  0  0  0
   60.0490   81.1620   33.8980 S   0  0  0  0  0  0  0  0  0  0  0  0
   59.6850   80.5820   35.5480 C   0  0  0  0  0  0  0  0  0  0  0  0
   60.9020   80.1700   33.2710 O   0  0  0  0  0  0  0  0  0  0  0  0
   60.4380   82.6490   34.0300 N   0  0  0  0  0  0  0  0  0  0  0  0
   61.8230   82.8990   34.3890 C   0  0  0  0  0  0  0  0  0  0  0  0
   62.9160   83.1060   34.7100 N   0  0  0  0  0  0  0  0  0  0  0  0
   58.0190   79.8570   30.9130 C   0  0  0  0  0  0  0  0  0  0  0  0
   55.5210   77.3700   29.5400 N   0  0  0  0  0  0  0  0  0  0  0  0
   54.2370   77.1070   29.2260 C   0  0  0  0  0  0  0  0  0  0  0  0
   53.6030   77.6280   28.1290 C   0  0  0  0  0  0  0  0  0  0  0  0
   52.3120   77.3610   27.8930 F   0  0  0  0  0  0  0  0  0  0  0  0
   55.1617   83.5068   27.8094 H   0  0  0  0  0  0  0  0  0  0  0  0
   55.2309   82.5323   26.3019 H   0  0  0  0  0  0  0  0  0  0  0  0
   54.4091   84.1296   26.3019 H   0  0  0  0  0  0  0  0  0  0  0  0
   52.9884   82.8906   28.2666 H   0  0  0  0  0  0  0  0  0  0  0  0
   52.5235   82.8128   26.5458 H   0  0  0  0  0  0  0  0  0  0  0  0
   52.6545   82.0914   24.8861 H   0  0  0  0  0  0  0  0  0  0  0  0
   53.1357   78.3228   22.8391 H   0  0  0  0  0  0  0  0  0  0  0  0
   53.9945   77.2880   24.9353 H   0  0  0  0  0  0  0  0  0  0  0  0
   58.1090   77.7410   28.7420 H   0  0  0  0  0  0  0  0  0  0  0  0
   59.0812   80.4159   27.7276 H   0  0  0  0  0  0  0  0  0  0  0  0
   59.8902   82.6847   31.3091 H   0  0  0  0  0  0  0  0  0  0  0  0
   57.9480   82.1055   33.2331 H   0  0  0  0  0  0  0  0  0  0  0  0
   57.8623   80.3102   33.4548 H   0  0  0  0  0  0  0  0  0  0  0  0
   60.1195   81.2743   36.2842 H   0  0  0  0  0  0  0  0  0  0  0  0
   58.5950   80.5347   35.6879 H   0  0  0  0  0  0  0  0  0  0  0  0
   60.1164   79.5799   35.6879 H   0  0  0  0  0  0  0  0  0  0  0  0
   57.4235   79.1429   31.5007 H   0  0  0  0  0  0  0  0  0  0  0  0
   53.6669   76.4374   29.8867 H   0  0  0  0  0  0  0  0  0  0  0  0
  1  2  1  0
  2  3  1  0
  3  4  1  0
  4  5  1  0
  5  6  2  0
  6  7  1  0
  6  8  1  0
  8  9  2  0
  9 10  1  0
 10 11  1  0
 11 12  2  0
 12 13  1  0
 13 14  1  0
 14 15  1  0
 15 16  1  0
 16 17  2  0
 17 18  1  0
 17 19  1  0
 19 20  2  0
 20 21  1  0
 21 22  1  0
 22 23  1  0
 22 24  2  0
 22 25  2  0
 25 26  1  0
 26 27  3  0
 20 28  1  0
 13 29  2  0
 29 30  1  0
 30 31  2  0
 31 32  1  0
 10  4  2  0
 31 11  1  0
 28 15  2  0
  1 33  1  0
  1 34  1  0
  1 35  1  0
  2 36  1  0
  2 37  1  0
  5 38  1  0
  8 39  1  0
  9 40  1  0
 14 41  1  0
 16 42  1  0
 19 43  1  0
 21 44  1  0
 21 45  1  0
 23 46  1  0
 23 47  1  0
 23 48  1  0
 28 49  1  0
 30 50  1  0
M  END
>  <meeko>  (1) 
{"is_sidechain": false}

>  <smiles>  (1) 
CCOc1cc(F)ccc1-c1nc(Nc2cc(F)cc(CS(C)(=O)=NC#N)c2)ncc1F

>  <vina_score>  (1) 
-9.004

>  <job_id>  (1) 
30448e6826091544

$$$$

     RDKit          3D

 56 59  0  0  0  0  0  0  0  0999 V2000
   55.1660   86.3900   26.0090 N   0  0  0  0  0  0  0  0  0  0  0  0
   54.9360   85.0190   26.1450 C   0  0  0  0  0  0  0  0  0  0  0  0
   55.8620   84.2050   26.7980 C   0  0  0  0  0  0  0  0  0  0  0  0
   55.5560   82.8750   27.1050 C   0  0  0  0  0  0  0  0  0  0  0  0
   54.2880   82.3510   26.8360 C   0  0  0  0  0  0  0  0  0  0  0  0
   53.9300   81.0230   27.1690 N   0  0  0  0  0  0  0  0  0  0  0  0
   54.7060   79.9420   26.7970 N   0  0  0  0  0  0  0  0  0  0  0  0
   54.0740   78.6760   26.6880 C   0  0  0  0  0  0  0  0  0  0  0  0
   53.1720   78.3700   25.6430 C   0  0  0  0  0  0  0  0  0  0  0  0
   52.9400   79.5180   24.3190 S   0  0  0  0  0  0  0  0  0  0  0  0
   51.8030   80.6070   24.9190 N   0  0  0  0  0  0  0  0  0  0  0  0
   52.2530   78.8530   23.2330 O   0  0  0  0  0  0  0  0  0  0  0  0
   54.1560   80.2750   24.1420 O   0  0  0  0  0  0  0  0  0  0  0  0
   52.4610   77.1640   25.6010 C   0  0  0  0  0  0  0  0  0  0  0  0
   52.6140   76.2120   26.6060 C   0  0  0  0  0  0  0  0  0  0  0  0
   53.5040   76.5060   27.6420 C   0  0  0  0  0  0  0  0  0  0  0  0
   53.8290   75.7570   28.7510 N   0  0  0  0  0  0  0  0  0  0  0  0
   54.7400   76.4170   29.5190 C   0  0  0  0  0  0  0  0  0  0  0  0
   55.1850   75.8690   30.6430 O   0  0  0  0  0  0  0  0  0  0  0  0
   55.0370   77.6170   28.9060 C   0  0  0  0  0  0  0  0  0  0  0  0
   55.9930   78.5810   29.4020 C   0  0  0  0  0  0  0  0  0  0  0  0
   57.0920   78.7930   28.7400 N   0  0  0  0  0  0  0  0  0  0  0  0
   57.9390   79.7370   29.3410 C   0  0  0  0  0  0  0  0  0  0  0  0
   58.7720   80.5390   28.5550 C   0  0  0  0  0  0  0  0  0  0  0  0
   59.6850   81.4090   29.1510 C   0  0  0  0  0  0  0  0  0  0  0  0
   59.7540   81.4840   30.5440 C   0  0  0  0  0  0  0  0  0  0  0  0
   60.9880   82.5140   31.2910 S   0  0  0  0  0  0  0  0  0  0  0  0
   62.4140   81.8960   30.6450 N   0  0  0  0  0  0  0  0  0  0  0  0
   60.9830   82.2730   32.7150 O   0  0  0  0  0  0  0  0  0  0  0  0
   60.8730   83.8430   30.7330 O   0  0  0  0  0  0  0  0  0  0  0  0
   58.8940   80.7250   31.3420 C   0  0  0  0  0  0  0  0  0  0  0  0
   57.9830   79.8570   30.7350 C   0  0  0  0  0  0  0  0  0  0  0  0
   54.2370   77.6960   27.7110 C   0  0  0  0  0  0  0  0  0  0  0  0
   53.3720   83.1610   26.1560 C   0  0  0  0  0  0  0  0  0  0  0  0
   53.6850   84.4870   25.8340 C   0  0  0  0  0  0  0  0  0  0  0  0
   56.0890   86.7120   26.3090 H   0  0  0  0  0  0  0  0  0  0  0  0
   54.8810   86.7840   25.1210 H   0  0  0  0  0  0  0  0  0  0  0  0
   56.8448   84.6141   27.0749 H   0  0  0  0  0  0  0  0  0  0  0  0
   56.3226   82.2333   27.5638 H   0  0  0  0  0  0  0  0  0  0  0  0
   53.5280   80.9760   28.1080 H   0  0  0  0  0  0  0  0  0  0  0  0
   55.2410   80.1500   25.9380 H   0  0  0  0  0  0  0  0  0  0  0  0
   51.2760   80.1610   25.6730 H   0  0  0  0  0  0  0  0  0  0  0  0
   52.2790   81.4620   25.2110 H   0  0  0  0  0  0  0  0  0  0  0  0
   51.7740   76.9665   24.7649 H   0  0  0  0  0  0  0  0  0  0  0  0
   52.0553   75.2647   26.5849 H   0  0  0  0  0  0  0  0  0  0  0  0
   53.4520   74.8490   28.9790 H   0  0  0  0  0  0  0  0  0  0  0  0
   55.3190   74.9160   30.4320 H   0  0  0  0  0  0  0  0  0  0  0  0
   55.7923   79.1315   30.3330 H   0  0  0  0  0  0  0  0  0  0  0  0
   58.7069   80.4835   27.4583 H   0  0  0  0  0  0  0  0  0  0  0  0
   60.3454   82.0310   28.5289 H   0  0  0  0  0  0  0  0  0  0  0  0
   62.8810   82.6370   30.1190 H   0  0  0  0  0  0  0  0  0  0  0  0
   62.2700   81.0650   30.0710 H   0  0  0  0  0  0  0  0  0  0  0  0
   58.9339   80.8101   32.4380 H   0  0  0  0  0  0  0  0  0  0  0  0
   57.2959   79.2640   31.3565 H   0  0  0  0  0  0  0  0  0  0  0  0
   52.3923   82.7503   25.8704 H   0  0  0  0  0  0  0  0  0  0  0  0
   52.9362   85.1159   25.3303 H   0  0  0  0  0  0  0  0  0  0  0  0
  1  2  1  0
  2  3  1  0
  3  4  2  0
  4  5  1  0
  5  6  1  0
  6  7  1  0
  7  8  1  0
  8  9  1  0
  9 10  1  0
 10 11  1  0
 10 12  2  0
 10 13  2  0
  9 14  2  0
 14 15  1  0
 15 16  2  0
 16 17  1  0
 17 18  1  0
 18 19  1  0
 18 20  2  0
 20 21  1  0
 21 22  2  3
 22 23  1  0
 23 24  1  0
 24 25  2  0
 25 26  1  0
 26 27  1  0
 27 28  1  0
 27 29  2  0
 27 30  2  0
 26 31  2  0
 31 32  1  0
 20 33  1  0
  5 34  2  0
 34 35  1  0
 35  2  2  0
 33  8  2  0
 33 16  1  0
 32 23  2  0
  1 36  1  0
  1 37  1  0
  3 38  1  0
  4 39  1  0
  6 40  1  0
  7 41  1  0
 11 42  1  0
 11 43  1  0
 14 44  1  0
 15 45  1  0
 17 46  1  0
 19 47  1  0
 21 48  1  0
 24 49  1  0
 25 50  1  0
 28 51  1  0
 28 52  1  0
 31 53  1  0
 32 54  1  0
 34 55  1  0
 35 56  1  0
M  END
>  <meeko>  (1) 
{"is_sidechain": false}

>  <smiles>  (1) 
Nc1ccc(NNc2c(S(N)(=O)=O)ccc3[nH]c(O)c(C=Nc4ccc(S(N)(=O)=O)cc4)c23)cc1

>  <vina_score>  (1) 
-7.598

>  <job_id>  (1) 
3ab284da1ffbfc4d

$$$$

     RDKit          3D

 43 44  0  0  0  0  0  0  0  0999 V2000
   60.3270   81.5860   31.9270 C   0  0  0  0  0  0  0  0  0  0  0  0
   58.9220   81.1010   31.5690 C   0  0  0  0  0  0  0  0  0  0  0  0
   58.0590   80.9890   32.8270 C   0  0  0  0  0  0  0  0  0  0  0  0
   58.9290   79.8060   30.7290 C   0  0  0  0  0  0  0  0  0  0  0  0
   57.8410   79.6740   29.6900 C   0  0  0  0  0  0  0  0  0  0  0  0
   56.7740   78.7840   29.8830 C   0  0  0  0  0  0  0  0  0  0  0  0
   55.7680   78.6570   28.9220 C   0  0  0  0  0  0  0  0  0  0  0  0
   55.8120   79.4320   27.7570 C   0  0  0  0  0  0  0  0  0  0  0  0
   54.7610   79.3280   26.7050 C   0  0  0  0  0  0  0  0  0  0  0  0
   54.0700   78.3180   26.6690 O   0  0  0  0  0  0  0  0  0  0  0  0
   54.7090   80.4010   25.8320 N   0  0  0  0  0  0  0  0  0  0  0  0
   53.7970   80.5990   24.7750 C   0  0  0  0  0  0  0  0  0  0  0  0
   53.3000   79.5690   23.9710 C   0  0  0  0  0  0  0  0  0  0  0  0
   52.3900   79.8440   22.9440 C   0  0  0  0  0  0  0  0  0  0  0  0
   51.9800   81.1580   22.7160 C   0  0  0  0  0  0  0  0  0  0  0  0
   50.8080   81.4980   21.4360 S   0  0  0  0  0  0  0  0  0  0  0  0
   49.3720   80.9840   22.1340 N   0  0  0  0  0  0  0  0  0  0  0  0
   51.0470   80.6070   20.3240 O   0  0  0  0  0  0  0  0  0  0  0  0
   50.6850   82.9270   21.2700 O   0  0  0  0  0  0  0  0  0  0  0  0
   52.4530   82.1960   23.5190 C   0  0  0  0  0  0  0  0  0  0  0  0
   53.3610   81.9120   24.5450 C   0  0  0  0  0  0  0  0  0  0  0  0
   56.8800   80.3100   27.5500 C   0  0  0  0  0  0  0  0  0  0  0  0
   57.8830   80.4360   28.5140 C   0  0  0  0  0  0  0  0  0  0  0  0
   60.4344   81.6231   33.0211 H   0  0  0  0  0  0  0  0  0  0  0  0
   61.0718   80.8930   31.5087 H   0  0  0  0  0  0  0  0  0  0  0  0
   60.4857   82.5909   31.5087 H   0  0  0  0  0  0  0  0  0  0  0  0
   58.4642   81.8589   30.9163 H   0  0  0  0  0  0  0  0  0  0  0  0
   58.6979   81.0719   33.7186 H   0  0  0  0  0  0  0  0  0  0  0  0
   57.3136   81.7979   32.8335 H   0  0  0  0  0  0  0  0  0  0  0  0
   57.5448   80.0166   32.8335 H   0  0  0  0  0  0  0  0  0  0  0  0
   59.8968   79.7494   30.2093 H   0  0  0  0  0  0  0  0  0  0  0  0
   58.7488   78.9915   31.4460 H   0  0  0  0  0  0  0  0  0  0  0  0
   56.7289   78.1796   30.8009 H   0  0  0  0  0  0  0  0  0  0  0  0
   54.9417   77.9484   29.0806 H   0  0  0  0  0  0  0  0  0  0  0  0
   55.4480   81.0870   25.9100 H   0  0  0  0  0  0  0  0  0  0  0  0
   53.6270   78.5336   24.1471 H   0  0  0  0  0  0  0  0  0  0  0  0
   51.9995   79.0274   22.3190 H   0  0  0  0  0  0  0  0  0  0  0  0
   48.6560   81.7020   22.0250 H   0  0  0  0  0  0  0  0  0  0  0  0
   49.5360   80.7090   23.1030 H   0  0  0  0  0  0  0  0  0  0  0  0
   52.1151   83.2286   23.3471 H   0  0  0  0  0  0  0  0  0  0  0  0
   53.7374   82.7284   25.1789 H   0  0  0  0  0  0  0  0  0  0  0  0
   56.9307   80.9034   26.6252 H   0  0  0  0  0  0  0  0  0  0  0  0
   58.7128   81.1390   28.3490 H   0  0  0  0  0  0  0  0  0  0  0  0
  1  2  1  0
  2  3  1  0
  2  4  1  0
  4  5  1  0
  5  6  1  0
  6  7  2  0
  7  8  1  0
  8  9  1  0
  9 10  2  0
  9 11  1  0
 11 12  1  0
 12 13  1  0
 13 14  2  0
 14 15  1  0
 15 16  1  0
 16 17  1  0
 16 18  2  0
 16 19  2  0
 15 20  2  0
 20 21  1  0
  8 22  2  0
 22 23  1  0
 23  5  2  0
 21 12  2  0
  1 24  1  0
  1 25  1  0
  1 26  1  0
  2 27  1  0
  3 28  1  0
  3 29  1  0
  3 30  1  0
  4 31  1  0
  4 32  1  0
  6 33  1  0
  7 34  1  0
 11 35  1  0
 13 36  1  0
 14 37  1  0
 17 38  1  0
 17 39  1  0
 20 40  1  0
 21 41  1  0
 22 42  1  0
 23 43  1  0
M  END
>  <meeko>  (1) 
{"is_sidechain": false}

>  <smiles>  (1) 
CC(C)Cc1ccc(C(=O)Nc2ccc(S(N)(=O)=O)cc2)cc1

>  <vina_score>  (1) 
-8.120

>  <job_id>  (1) 
3b9a2738d4818b31

$$$$

     RDKit          3D

 49 51  0  0  0  0  0  0  0  0999 V2000
   54.8240   76.1180   29.4910 C   0  0  0  0  0  0  0  0  0  0  0  0
   54.2520   77.2310   28.8190 O   0  0  0  0  0  0  0  0  0  0  0  0
   55.1060   78.1930   28.3460 C   0  0  0  0  0  0  0  0  0  0  0  0
   56.4310   78.3630   28.7590 C   0  0  0  0  0  0  0  0  0  0  0  0
   57.2400   79.3780   28.2210 C   0  0  0  0  0  0  0  0  0  0  0  0
   58.5580   79.5090   28.7160 N   0  0  0  0  0  0  0  0  0  0  0  0
   59.0380   80.3430   29.6820 C   0  0  0  0  0  0  0  0  0  0  0  0
   59.9450   81.3720   29.4930 C   0  0  0  0  0  0  0  0  0  0  0  0
   60.3380   82.0730   30.6160 N   0  0  0  0  0  0  0  0  0  0  0  0
   59.7530   81.5730   31.6770 C   0  0  0  0  0  0  0  0  0  0  0  0
   59.9150   82.0220   32.9440 N   0  0  0  0  0  0  0  0  0  0  0  0
   60.8410   81.3320   33.8400 C   0  0  0  0  0  0  0  0  0  0  0  0
   60.0730   80.6980   35.0080 C   0  0  0  0  0  0  0  0  0  0  0  0
   60.9540   80.6070   36.2470 C   0  0  0  0  0  0  0  0  0  0  0  0
   61.3740   81.9230   36.7300 N   0  0  0  0  0  0  0  0  0  0  0  0
   61.5550   82.9210   35.6770 C   0  0  0  0  0  0  0  0  0  0  0  0
   61.9150   82.3200   34.3240 C   0  0  0  0  0  0  0  0  0  0  0  0
   58.7230   80.2320   31.3710 S   0  0  0  0  0  0  0  0  0  0  0  0
   56.6920   80.2350   27.2550 C   0  0  0  0  0  0  0  0  0  0  0  0
   55.3700   80.0900   26.8250 C   0  0  0  0  0  0  0  0  0  0  0  0
   54.7630   80.8740   25.8780 O   0  0  0  0  0  0  0  0  0  0  0  0
   55.1880   82.2260   25.7730 C   0  0  0  0  0  0  0  0  0  0  0  0
   54.5800   79.0750   27.3890 C   0  0  0  0  0  0  0  0  0  0  0  0
   53.2900   78.8940   26.9430 O   0  0  0  0  0  0  0  0  0  0  0  0
   53.2940   78.0670   25.7800 C   0  0  0  0  0  0  0  0  0  0  0  0
   54.7474   76.2671   30.5782 H   0  0  0  0  0  0  0  0  0  0  0  0
   54.2850   75.2019   29.2076 H   0  0  0  0  0  0  0  0  0  0  0  0
   55.8826   76.0230   29.2076 H   0  0  0  0  0  0  0  0  0  0  0  0
   56.8486   77.6882   29.5208 H   0  0  0  0  0  0  0  0  0  0  0  0
   59.2290   79.0110   28.1390 H   0  0  0  0  0  0  0  0  0  0  0  0
   60.3345   81.6196   28.4945 H   0  0  0  0  0  0  0  0  0  0  0  0
   59.0880   82.4080   33.3880 H   0  0  0  0  0  0  0  0  0  0  0  0
   61.3469   80.5166   33.3022 H   0  0  0  0  0  0  0  0  0  0  0  0
   59.1910   81.3143   35.2368 H   0  0  0  0  0  0  0  0  0  0  0  0
   59.7651   79.6825   34.7183 H   0  0  0  0  0  0  0  0  0  0  0  0
   60.3906   80.1010   37.0448 H   0  0  0  0  0  0  0  0  0  0  0  0
   61.8594   80.0448   35.9746 H   0  0  0  0  0  0  0  0  0  0  0  0
   62.2290   81.8240   37.2770 H   0  0  0  0  0  0  0  0  0  0  0  0
   60.6176   83.4862   35.5684 H   0  0  0  0  0  0  0  0  0  0  0  0
   62.3963   83.5616   35.9801 H   0  0  0  0  0  0  0  0  0  0  0  0
   62.0118   83.1312   33.5874 H   0  0  0  0  0  0  0  0  0  0  0  0
   62.8628   81.7723   34.4319 H   0  0  0  0  0  0  0  0  0  0  0  0
   57.3140   81.0356   26.8282 H   0  0  0  0  0  0  0  0  0  0  0  0
   55.3206   82.6479   26.7802 H   0  0  0  0  0  0  0  0  0  0  0  0
   56.1430   82.2689   25.2288 H   0  0  0  0  0  0  0  0  0  0  0  0
   54.4294   82.8076   25.2288 H   0  0  0  0  0  0  0  0  0  0  0  0
   53.2991   77.0093   26.0822 H   0  0  0  0  0  0  0  0  0  0  0  0
   52.3948   78.2728   25.1807 H   0  0  0  0  0  0  0  0  0  0  0  0
   54.1911   78.2814   25.1807 H   0  0  0  0  0  0  0  0  0  0  0  0
  1  2  1  0
  2  3  1  0
  3  4  2  0
  4  5  1  0
  5  6  1  0
  6  7  1  0
  7  8  2  0
  8  9  1  0
  9 10  2  0
 10 11  1  0
 11 12  1  0
 12 13  1  0
 13 14  1  0
 14 15  1  0
 15 16  1  0
 16 17  1  0
 10 18  1  0
  5 19  2  0
 19 20  1  0
 20 21  1  0
 21 22  1  0
 20 23  2  0
 23 24  1  0
 24 25  1  0
 23  3  1  0
 18  7  1  0
 17 12  1  0
  1 26  1  0
  1 27  1  0
  1 28  1  0
  4 29  1  0
  6 30  1  0
  8 31  1  0
 11 32  1  0
 12 33  1  0
 13 34  1  0
 13 35  1  0
 14 36  1  0
 14 37  1  0
 15 38  1  0
 16 39  1  0
 16 40  1  0
 17 41  1  0
 17 42  1  0
 19 43  1  0
 22 44  1  0
 22 45  1  0
 22 46  1  0
 25 47  1  0
 25 48  1  0
 25 49  1  0
M  END
>  <meeko>  (1) 
{"is_sidechain": false}

>  <smiles>  (1) 
COc1cc(Nc2cnc(NC3CCNCC3)s2)cc(OC)c1OC

>  <vina_score>  (1) 
-6.844

>  <job_id>  (1) 
3be68a7678e7cc0f

$$$$

     RDKit          3D

 55 57  0  0  0  0  0  0  0  0999 V2000
   62.5630   80.4200   36.5050 C   0  0  0  0  0  0  0  0  0  0  0  0
   62.6840   81.3660   35.4050 N   0  0  0  0  0  0  0  0  0  0  0  0
   62.0990   81.0750   34.2960 C   0  0  0  0  0  0  0  0  0  0  0  0
   61.2560   79.8590   34.0210 C   0  0  0  0  0  0  0  0  0  0  0  0
   62.2950   82.2250   32.9870 S   0  0  0  0  0  0  0  0  0  0  0  0
   60.7190   82.9290   33.0730 C   0  0  0  0  0  0  0  0  0  0  0  0
   60.1060   83.2480   34.0710 O   0  0  0  0  0  0  0  0  0  0  0  0
   60.2580   83.1500   31.6520 C   0  0  0  0  0  0  0  0  0  0  0  0
   60.4410   84.2520   31.1440 O   0  0  0  0  0  0  0  0  0  0  0  0
   59.6550   82.0260   30.8910 C   0  0  0  0  0  0  0  0  0  0  0  0
   58.8930   81.0830   31.5850 C   0  0  0  0  0  0  0  0  0  0  0  0
   58.3110   80.0090   30.9010 C   0  0  0  0  0  0  0  0  0  0  0  0
   58.4720   79.8480   29.5150 C   0  0  0  0  0  0  0  0  0  0  0  0
   57.8540   78.7600   28.8940 N   0  0  0  0  0  0  0  0  0  0  0  0
   56.5340   78.3480   28.7480 C   0  0  0  0  0  0  0  0  0  0  0  0
   55.9340   77.5460   29.6430 N   0  0  0  0  0  0  0  0  0  0  0  0
   54.6440   77.2160   29.4160 C   0  0  0  0  0  0  0  0  0  0  0  0
   53.9390   77.6470   28.3260 C   0  0  0  0  0  0  0  0  0  0  0  0
   52.6610   77.2930   28.1450 F   0  0  0  0  0  0  0  0  0  0  0  0
   54.6320   78.4470   27.4460 C   0  0  0  0  0  0  0  0  0  0  0  0
   54.0130   79.0130   26.2570 C   0  0  0  0  0  0  0  0  0  0  0  0
   53.4480   78.3350   25.1910 C   0  0  0  0  0  0  0  0  0  0  0  0
   52.9340   79.1890   24.2620 N   0  0  0  0  0  0  0  0  0  0  0  0
   53.1720   80.3980   24.7220 C   0  0  0  0  0  0  0  0  0  0  0  0
   52.7590   81.6510   24.0340 C   0  0  0  0  0  0  0  0  0  0  0  0
   53.8670   80.3490   25.9230 N   0  0  0  0  0  0  0  0  0  0  0  0
   54.3730   81.5360   26.6180 C   0  0  0  0  0  0  0  0  0  0  0  0
   53.3050   82.5680   26.9880 C   0  0  0  0  0  0  0  0  0  0  0  0
   55.5680   82.1640   25.9050 C   0  0  0  0  0  0  0  0  0  0  0  0
   55.9190   78.8090   27.6450 N   0  0  0  0  0  0  0  0  0  0  0  0
   59.2270   80.8110   28.8370 C   0  0  0  0  0  0  0  0  0  0  0  0
   59.8170   81.8900   29.5110 C   0  0  0  0  0  0  0  0  0  0  0  0
   62.6319   80.9590   37.4614 H   0  0  0  0  0  0  0  0  0  0  0  0
   61.5919   79.9071   36.4424 H   0  0  0  0  0  0  0  0  0  0  0  0
   63.3737   79.6792   36.4424 H   0  0  0  0  0  0  0  0  0  0  0  0
   60.9426   79.4070   34.9736 H   0  0  0  0  0  0  0  0  0  0  0  0
   60.3665   80.1523   33.4442 H   0  0  0  0  0  0  0  0  0  0  0  0
   61.8427   79.1289   33.4442 H   0  0  0  0  0  0  0  0  0  0  0  0
   58.7500   81.1845   32.6709 H   0  0  0  0  0  0  0  0  0  0  0  0
   57.7141   79.2746   31.4617 H   0  0  0  0  0  0  0  0  0  0  0  0
   58.4480   78.1410   28.3610 H   0  0  0  0  0  0  0  0  0  0  0  0
   54.1347   76.5680   30.1445 H   0  0  0  0  0  0  0  0  0  0  0  0
   53.4176   77.2389   25.1042 H   0  0  0  0  0  0  0  0  0  0  0  0
   52.5071   82.4152   24.7840 H   0  0  0  0  0  0  0  0  0  0  0  0
   53.5853   82.0132   23.4047 H   0  0  0  0  0  0  0  0  0  0  0  0
   51.8793   81.4509   23.4047 H   0  0  0  0  0  0  0  0  0  0  0  0
   54.7329   81.1548   27.5851 H   0  0  0  0  0  0  0  0  0  0  0  0
   53.2294   82.6410   28.0830 H   0  0  0  0  0  0  0  0  0  0  0  0
   53.5831   83.5482   26.5735 H   0  0  0  0  0  0  0  0  0  0  0  0
   52.3349   82.2565   26.5735 H   0  0  0  0  0  0  0  0  0  0  0  0
   56.2837   82.5401   26.6508 H   0  0  0  0  0  0  0  0  0  0  0  0
   56.0584   81.4071   25.2752 H   0  0  0  0  0  0  0  0  0  0  0  0
   55.2228   82.9972   25.2752 H   0  0  0  0  0  0  0  0  0  0  0  0
   59.3611   80.7196   27.7490 H   0  0  0  0  0  0  0  0  0  0  0  0
   60.4081   82.6301   28.9517 H   0  0  0  0  0  0  0  0  0  0  0  0
  1  2  1  0
  2  3  2  3
  3  4  1  0
  3  5  1  0
  5  6  1  0
  6  7  2  0
  6  8  1  0
  8  9  2  0
  8 10  1  0
 10 11  1  0
 11 12  2  0
 12 13  1  0
 13 14  1  0
 14 15  1  0
 15 16  2  0
 16 17  1  0
 17 18  2  0
 18 19  1  0
 18 20  1  0
 20 21  1  0
 21 22  2  0
 22 23  1  0
 23 24  2  0
 24 25  1  0
 24 26  1  0
 26 27  1  0
 27 28  1  0
 27 29  1  0
 20 30  2  0
 13 31  2  0
 31 32  1  0
 32 10  2  0
 30 15  1  0
 26 21  1  0
  1 33  1  0
  1 34  1  0
  1 35  1  0
  4 36  1  0
  4 37  1  0
  4 38  1  0
 11 39  1  0
 12 40  1  0
 14 41  1  0
 17 42  1  0
 22 43  1  0
 25 44  1  0
 25 45  1  0
 25 46  1  0
 27 47  1  0
 28 48  1  0
 28 49  1  0
 28 50  1  0
 29 51  1  0
 29 52  1  0
 29 53  1  0
 31 54  1  0
 32 55  1  0
M  END
>  <meeko>  (1) 
{"is_sidechain": false}

>  <smiles>  (1) 
CN=C(C)SC(=O)C(=O)c1ccc(Nc2ncc(F)c(-c3cnc(C)n3C(C)C)n2)cc1

>  <vina_score>  (1) 
-8.769

>  <job_id>  (1) 
3d33fe8e869ce5d9

$$$$

     RDKit          3D

 48 51  0  0  0  0  0  0  0  0999 V2000
   53.1740   79.0780   24.0000 O   0  0  0  0  0  0  0  0  0  0  0  0
   53.8760   79.2850   24.9830 C   0  0  0  0  0  0  0  0  0  0  0  0
   54.7640   80.3270   25.0340 N   0  0  0  0  0  0  0  0  0  0  0  0
   55.5690   80.6230   26.0910 C   0  0  0  0  0  0  0  0  0  0  0  0
   56.3100   81.7510   25.8620 O   0  0  0  0  0  0  0  0  0  0  0  0
   55.5750   79.8710   27.2120 C   0  0  0  0  0  0  0  0  0  0  0  0
   56.5550   80.2420   28.2710 C   0  0  0  0  0  0  0  0  0  0  0  0
   57.8340   80.0600   28.1930 N   0  0  0  0  0  0  0  0  0  0  0  0
   58.5820   80.4680   29.3050 C   0  0  0  0  0  0  0  0  0  0  0  0
   58.2550   80.0180   30.5860 C   0  0  0  0  0  0  0  0  0  0  0  0
   58.9990   80.4320   31.6940 C   0  0  0  0  0  0  0  0  0  0  0  0
   60.0730   81.3190   31.5390 C   0  0  0  0  0  0  0  0  0  0  0  0
   60.8920   81.7530   32.7380 C   0  0  0  0  0  0  0  0  0  0  0  0
   60.8260   80.8110   33.8650 N   0  0  0  0  0  0  0  0  0  0  0  0
   60.7340   81.5460   35.1450 C   0  0  0  0  0  0  0  0  0  0  0  0
   61.2020   80.6890   36.3300 C   0  0  0  0  0  0  0  0  0  0  0  0
   62.5920   80.3470   36.2410 O   0  0  0  0  0  0  0  0  0  0  0  0
   63.0600   80.2390   34.8900 C   0  0  0  0  0  0  0  0  0  0  0  0
   61.9570   79.8570   33.8910 C   0  0  0  0  0  0  0  0  0  0  0  0
   60.3930   81.7710   30.2500 C   0  0  0  0  0  0  0  0  0  0  0  0
   59.6460   81.3570   29.1450 C   0  0  0  0  0  0  0  0  0  0  0  0
   54.6530   78.7090   27.2870 C   0  0  0  0  0  0  0  0  0  0  0  0
   54.5770   77.8500   28.3950 C   0  0  0  0  0  0  0  0  0  0  0  0
   53.6930   76.7630   28.4100 C   0  0  0  0  0  0  0  0  0  0  0  0
   52.8710   76.5060   27.3180 C   0  0  0  0  0  0  0  0  0  0  0  0
   52.9320   77.3370   26.2030 C   0  0  0  0  0  0  0  0  0  0  0  0
   53.8160   78.4240   26.1900 C   0  0  0  0  0  0  0  0  0  0  0  0
   54.8090   80.9250   24.2190 H   0  0  0  0  0  0  0  0  0  0  0  0
   56.9980   81.5610   25.2030 H   0  0  0  0  0  0  0  0  0  0  0  0
   56.1621   80.7054   29.1880 H   0  0  0  0  0  0  0  0  0  0  0  0
   57.4056   79.3327   30.7237 H   0  0  0  0  0  0  0  0  0  0  0  0
   58.7397   80.0588   32.6957 H   0  0  0  0  0  0  0  0  0  0  0  0
   61.9423   81.8494   32.4258 H   0  0  0  0  0  0  0  0  0  0  0  0
   60.4719   82.7072   33.0887 H   0  0  0  0  0  0  0  0  0  0  0  0
   61.3645   82.4454   35.0852 H   0  0  0  0  0  0  0  0  0  0  0  0
   59.6797   81.8123   35.3111 H   0  0  0  0  0  0  0  0  0  0  0  0
   61.0353   81.2514   37.2605 H   0  0  0  0  0  0  0  0  0  0  0  0
   60.6243   79.7530   36.3163 H   0  0  0  0  0  0  0  0  0  0  0  0
   63.4826   81.2089   34.5888 H   0  0  0  0  0  0  0  0  0  0  0  0
   63.8098   79.4344   34.8694 H   0  0  0  0  0  0  0  0  0  0  0  0
   62.3989   79.8138   32.8846 H   0  0  0  0  0  0  0  0  0  0  0  0
   61.5528   78.8856   34.2121 H   0  0  0  0  0  0  0  0  0  0  0  0
   61.2403   82.4580   30.1083 H   0  0  0  0  0  0  0  0  0  0  0  0
   59.8977   81.7338   28.1427 H   0  0  0  0  0  0  0  0  0  0  0  0
   55.2227   78.0336   29.2664 H   0  0  0  0  0  0  0  0  0  0  0  0
   53.6488   76.1077   29.2924 H   0  0  0  0  0  0  0  0  0  0  0  0
   52.1777   75.6522   27.3353 H   0  0  0  0  0  0  0  0  0  0  0  0
   52.2873   77.1407   25.3336 H   0  0  0  0  0  0  0  0  0  0  0  0
  1  2  2  0
  2  3  1  0
  3  4  1  0
  4  5  1  0
  4  6  2  0
  6  7  1  0
  7  8  2  3
  8  9  1  0
  9 10  1  0
 10 11  2  0
 11 12  1  0
 12 13  1  0
 13 14  1  0
 14 15  1  0
 15 16  1  0
 16 17  1  0
 17 18  1  0
 18 19  1  0
 12 20  2  0
 20 21  1  0
  6 22  1  0
 22 23  2  0
 23 24  1  0
 24 25  2  0
 25 26  1  0
 26 27  2  0
 27  2  1  0
 21  9  2  0
 27 22  1  0
 19 14  1  0
  3 28  1  0
  5 29  1  0
  7 30  1  0
 10 31  1  0
 11 32  1  0
 13 33  1  0
 13 34  1  0
 15 35  1  0
 15 36  1  0
 16 37  1  0
 16 38  1  0
 18 39  1  0
 18 40  1  0
 19 41  1  0
 19 42  1  0
 20 43  1  0
 21 44  1  0
 23 45  1  0
 24 46  1  0
 25 47  1  0
 26 48  1  0
M  END
>  <meeko>  (1) 
{"is_sidechain": false}

>  <smiles>  (1) 
O=c1[nH]c(O)c(C=Nc2ccc(CN3CCOCC3)cc2)c2ccccc12

>  <vina_score>  (1) 
-8.802

>  <job_id>  (1) 
3d574e5af90c9a8b

$$$$

     RDKit          3D

 35 36  0  0  0  0  0  0  0  0999 V2000
   59.8460   81.3190   29.4900 C   0  0  0  0  0  0  0  0  0  0  0  0
   58.4190   81.0620   29.6270 N   0  0  0  0  0  0  0  0  0  0  0  0
   57.8430   79.5210   29.2980 S   0  0  0  0  0  0  0  0  0  0  0  0
   58.9350   78.7350   28.7690 O   0  0  0  0  0  0  0  0  0  0  0  0
   57.0990   79.1060   30.4660 O   0  0  0  0  0  0  0  0  0  0  0  0
   56.6730   79.8310   28.0020 C   0  0  0  0  0  0  0  0  0  0  0  0
   56.8340   80.9540   27.1900 C   0  0  0  0  0  0  0  0  0  0  0  0
   55.9050   81.2120   26.1780 C   0  0  0  0  0  0  0  0  0  0  0  0
   54.8050   80.3630   25.9670 C   0  0  0  0  0  0  0  0  0  0  0  0
   53.8260   80.6410   24.9020 C   0  0  0  0  0  0  0  0  0  0  0  0
   53.2750   79.5970   24.1380 C   0  0  0  0  0  0  0  0  0  0  0  0
   52.3490   79.8560   23.1240 C   0  0  0  0  0  0  0  0  0  0  0  0
   51.9590   81.1720   22.8700 C   0  0  0  0  0  0  0  0  0  0  0  0
   50.7920   81.4990   21.5760 S   0  0  0  0  0  0  0  0  0  0  0  0
   49.3470   81.0190   22.2980 N   0  0  0  0  0  0  0  0  0  0  0  0
   50.6850   82.9290   21.4050 O   0  0  0  0  0  0  0  0  0  0  0  0
   51.0610   80.6010   20.4780 O   0  0  0  0  0  0  0  0  0  0  0  0
   52.4980   82.2280   23.6050 C   0  0  0  0  0  0  0  0  0  0  0  0
   53.4240   81.9580   24.6160 C   0  0  0  0  0  0  0  0  0  0  0  0
   54.6610   79.2430   26.8070 C   0  0  0  0  0  0  0  0  0  0  0  0
   55.5850   78.9760   27.8220 C   0  0  0  0  0  0  0  0  0  0  0  0
   60.3013   81.4010   30.4880 H   0  0  0  0  0  0  0  0  0  0  0  0
   60.3165   80.4911   28.9393 H   0  0  0  0  0  0  0  0  0  0  0  0
   59.9981   82.2590   28.9393 H   0  0  0  0  0  0  0  0  0  0  0  0
   57.9090   81.5220   30.3800 H   0  0  0  0  0  0  0  0  0  0  0  0
   57.6863   81.6319   27.3451 H   0  0  0  0  0  0  0  0  0  0  0  0
   56.0371   82.0950   25.5355 H   0  0  0  0  0  0  0  0  0  0  0  0
   53.5779   78.5594   24.3419 H   0  0  0  0  0  0  0  0  0  0  0  0
   51.9308   79.0295   22.5307 H   0  0  0  0  0  0  0  0  0  0  0  0
   49.1960   80.0120   22.2660 H   0  0  0  0  0  0  0  0  0  0  0  0
   49.3220   81.3790   23.2540 H   0  0  0  0  0  0  0  0  0  0  0  0
   52.1968   83.2640   23.3906 H   0  0  0  0  0  0  0  0  0  0  0  0
   53.8460   82.7903   25.1985 H   0  0  0  0  0  0  0  0  0  0  0  0
   53.8064   78.5656   26.6625 H   0  0  0  0  0  0  0  0  0  0  0  0
   55.4553   78.0991   28.4733 H   0  0  0  0  0  0  0  0  0  0  0  0
  1  2  1  0
  2  3  1  0
  3  4  2  0
  3  5  2  0
  3  6  1  0
  6  7  1  0
  7  8  2  0
  8  9  1  0
  9 10  1  0
 10 11  1  0
 11 12  2  0
 12 13  1  0
 13 14  1  0
 14 15  1  0
 14 16  2  0
 14 17  2  0
 13 18  2  0
 18 19  1  0
  9 20  2  0
 20 21  1  0
 21  6  2  0
 19 10  2  0
  1 22  1  0
  1 23  1  0
  1 24  1  0
  2 25  1  0
  7 26  1  0
  8 27  1  0
 11 28  1  0
 12 29  1  0
 15 30  1  0
 15 31  1  0
 18 32  1  0
 19 33  1  0
 20 34  1  0
 21 35  1  0
M  END
>  <meeko>  (1) 
{"is_sidechain": false}

>  <smiles>  (1) 
CNS(=O)(=O)c1ccc(-c2ccc(S(N)(=O)=O)cc2)cc1

>  <vina_score>  (1) 
-7.389

>  <job_id>  (1) 
3de4d49aa5346952

$$$$

     RDKit          3D

 61 64  0  0  0  0  0  0  0  0999 V2000
   52.8590   81.3990   23.1020 C   0  0  0  0  0  0  0  0  0  0  0  0
   53.1440   80.2670   24.0230 C   0  0  0  0  0  0  0  0  0  0  0  0
   52.8870   79.0070   23.7470 N   0  0  0  0  0  0  0  0  0  0  0  0
   53.3150   78.2980   24.8290 C   0  0  0  0  0  0  0  0  0  0  0  0
   53.8590   79.1200   25.7990 C   0  0  0  0  0  0  0  0  0  0  0  0
   54.4420   78.7300   27.0760 C   0  0  0  0  0  0  0  0  0  0  0  0
   55.7290   79.1020   27.2490 N   0  0  0  0  0  0  0  0  0  0  0  0
   56.3330   78.7400   28.3950 C   0  0  0  0  0  0  0  0  0  0  0  0
   57.6570   79.1520   28.5100 N   0  0  0  0  0  0  0  0  0  0  0  0
   58.3640   79.9070   29.4490 C   0  0  0  0  0  0  0  0  0  0  0  0
   58.1790   79.8190   30.8260 C   0  0  0  0  0  0  0  0  0  0  0  0
   58.9210   80.6170   31.7130 C   0  0  0  0  0  0  0  0  0  0  0  0
   59.8800   81.5390   31.2720 C   0  0  0  0  0  0  0  0  0  0  0  0
   60.6010   82.3220   32.1610 N   0  0  0  0  0  0  0  0  0  0  0  0
   61.8420   82.9910   31.7230 C   0  0  0  0  0  0  0  0  0  0  0  0
   62.1070   84.2930   32.5030 C   0  0  0  0  0  0  0  0  0  0  0  0
   62.0930   84.1000   33.9530 N   0  0  0  0  0  0  0  0  0  0  0  0
   62.9070   84.8850   34.7520 C   0  0  0  0  0  0  0  0  0  0  0  0
   63.6110   85.7880   34.2930 O   0  0  0  0  0  0  0  0  0  0  0  0
   62.8990   84.6150   36.2610 C   0  0  0  0  0  0  0  0  0  0  0  0
   63.8100   83.5950   36.6360 O   0  0  0  0  0  0  0  0  0  0  0  0
   61.1630   83.0840   34.4620 C   0  0  0  0  0  0  0  0  0  0  0  0
   60.0480   82.7180   33.4650 C   0  0  0  0  0  0  0  0  0  0  0  0
   60.0490   81.6270   29.8850 C   0  0  0  0  0  0  0  0  0  0  0  0
   59.3110   80.8310   28.9940 C   0  0  0  0  0  0  0  0  0  0  0  0
   55.7160   78.0400   29.3610 N   0  0  0  0  0  0  0  0  0  0  0  0
   54.4350   77.6770   29.1450 C   0  0  0  0  0  0  0  0  0  0  0  0
   53.7460   77.9940   28.0070 C   0  0  0  0  0  0  0  0  0  0  0  0
   52.4750   77.6100   27.8380 F   0  0  0  0  0  0  0  0  0  0  0  0
   53.7050   80.3980   25.2870 N   0  0  0  0  0  0  0  0  0  0  0  0
   53.9940   81.6870   25.9180 C   0  0  0  0  0  0  0  0  0  0  0  0
   53.3110   81.9080   27.2700 C   0  0  0  0  0  0  0  0  0  0  0  0
   55.4890   81.9940   25.9640 C   0  0  0  0  0  0  0  0  0  0  0  0
   52.6319   82.3011   23.6891 H   0  0  0  0  0  0  0  0  0  0  0  0
   53.7381   81.5860   22.4678 H   0  0  0  0  0  0  0  0  0  0  0  0
   51.9962   81.1474   22.4678 H   0  0  0  0  0  0  0  0  0  0  0  0
   53.2373   77.2045   24.9199 H   0  0  0  0  0  0  0  0  0  0  0  0
   58.1940   78.7420   27.7600 H   0  0  0  0  0  0  0  0  0  0  0  0
   57.4382   79.1116   31.2270 H   0  0  0  0  0  0  0  0  0  0  0  0
   58.7426   80.5143   32.7936 H   0  0  0  0  0  0  0  0  0  0  0  0
   62.6882   82.3058   31.8794 H   0  0  0  0  0  0  0  0  0  0  0  0
   61.7288   83.2508   30.6601 H   0  0  0  0  0  0  0  0  0  0  0  0
   63.0929   84.6832   32.2102 H   0  0  0  0  0  0  0  0  0  0  0  0
   61.2986   84.9968   32.2555 H   0  0  0  0  0  0  0  0  0  0  0  0
   63.1718   85.5420   36.7865 H   0  0  0  0  0  0  0  0  0  0  0  0
   61.8885   84.2770   36.5342 H   0  0  0  0  0  0  0  0  0  0  0  0
   64.2750   83.9280   37.4260 H   0  0  0  0  0  0  0  0  0  0  0  0
   61.7349   82.1736   34.6945 H   0  0  0  0  0  0  0  0  0  0  0  0
   60.6751   83.5085   35.3518 H   0  0  0  0  0  0  0  0  0  0  0  0
   59.4628   81.8813   33.8743 H   0  0  0  0  0  0  0  0  0  0  0  0
   59.4128   83.6037   33.3164 H   0  0  0  0  0  0  0  0  0  0  0  0
   60.7818   82.3410   29.4811 H   0  0  0  0  0  0  0  0  0  0  0  0
   59.4815   80.9365   27.9124 H   0  0  0  0  0  0  0  0  0  0  0  0
   53.9184   77.0966   29.9236 H   0  0  0  0  0  0  0  0  0  0  0  0
   53.5296   82.4276   25.2503 H   0  0  0  0  0  0  0  0  0  0  0  0
   54.0189   81.6789   28.0802 H   0  0  0  0  0  0  0  0  0  0  0  0
   52.9882   82.9565   27.3507 H   0  0  0  0  0  0  0  0  0  0  0  0
   52.4352   81.2474   27.3507 H   0  0  0  0  0  0  0  0  0  0  0  0
   55.8174   82.0614   27.0117 H   0  0  0  0  0  0  0  0  0  0  0  0
   56.0440   81.1911   25.4567 H   0  0  0  0  0  0  0  0  0  0  0  0
   55.6826   82.9507   25.4567 H   0  0  0  0  0  0  0  0  0  0  0  0
  1  2  1  0
  2  3  2  0
  3  4  1  0
  4  5  2  0
  5  6  1  0
  6  7  2  0
  7  8  1  0
  8  9  1  0
  9 10  1  0
 10 11  1  0
 11 12  2  0
 12 13  1  0
 13 14  1  0
 14 15  1  0
 15 16  1  0
 16 17  1  0
 17 18  1  0
 18 19  2  0
 18 20  1  0
 20 21  1  0
 17 22  1  0
 22 23  1  0
 13 24  2  0
 24 25  1  0
  8 26  2  0
 26 27  1  0
 27 28  2  0
 28 29  1  0
  5 30  1  0
 30 31  1  0
 31 32  1  0
 31 33  1  0
 30  2  1  0
 28  6  1  0
 25 10  2  0
 23 14  1  0
  1 34  1  0
  1 35  1  0
  1 36  1  0
  4 37  1  0
  9 38  1  0
 11 39  1  0
 12 40  1  0
 15 41  1  0
 15 42  1  0
 16 43  1  0
 16 44  1  0
 20 45  1  0
 20 46  1  0
 21 47  1  0
 22 48  1  0
 22 49  1  0
 23 50  1  0
 23 51  1  0
 24 52  1  0
 25 53  1  0
 27 54  1  0
 31 55  1  0
 32 56  1  0
 32 57  1  0
 32 58  1  0
 33 59  1  0
 33 60  1  0
 33 61  1  0
M  END
>  <meeko>  (1) 
{"is_sidechain": false}

>  <smiles>  (1) 
Cc1ncc(-c2nc(Nc3ccc(N4CCN(C(=O)CO)CC4)cc3)ncc2F)n1C(C)C

>  <vina_score>  (1) 
-8.801

>  <job_id>  (1) 
414e7a0d919da597

$$$$

     RDKit          3D

 50 52  0  0  0  0  0  0  0  0999 V2000
   60.7890   84.2270   32.8860 C   0  0  0  0  0  0  0  0  0  0  0  0
   60.8340   83.9360   31.5790 C   0  0  0  0  0  0  0  0  0  0  0  0
   59.7700   83.2160   30.8220 C   0  0  0  0  0  0  0  0  0  0  0  0
   58.8960   83.8800   30.2790 O   0  0  0  0  0  0  0  0  0  0  0  0
   59.9440   81.8520   30.7720 N   0  0  0  0  0  0  0  0  0  0  0  0
   59.0990   80.9040   30.1590 C   0  0  0  0  0  0  0  0  0  0  0  0
   59.0040   80.7230   28.7770 C   0  0  0  0  0  0  0  0  0  0  0  0
   58.1360   79.7630   28.2440 C   0  0  0  0  0  0  0  0  0  0  0  0
   57.3740   78.9700   29.0960 C   0  0  0  0  0  0  0  0  0  0  0  0
   56.5190   78.0570   28.5460 O   0  0  0  0  0  0  0  0  0  0  0  0
   55.1520   78.3410   28.8920 C   0  0  2  0  0  0  0  0  0  0  0  0
   54.3580   77.0620   28.6330 C   0  0  0  0  0  0  0  0  0  0  0  0
   52.9710   77.2530   28.0250 C   0  0  0  0  0  0  0  0  0  0  0  0
   52.9360   77.3620   26.5020 C   0  0  0  0  0  0  0  0  0  0  0  0
   53.5210   78.6960   25.9670 C   0  0  1  0  0  0  0  0  0  0  0  0
   52.5180   79.7580   26.0620 N   0  0  0  0  0  0  0  0  0  0  0  0
   52.5190   80.7710   25.1660 C   0  0  0  0  0  0  0  0  0  0  0  0
   52.5820   82.0470   25.4640 N   0  0  0  0  0  0  0  0  0  0  0  0
   52.5600   82.8020   24.3070 C   0  0  0  0  0  0  0  0  0  0  0  0
   52.4840   82.1010   23.1170 C   0  0  0  0  0  0  0  0  0  0  0  0
   52.4440   82.4870   21.8360 O   0  0  0  0  0  0  0  0  0  0  0  0
   51.7060   81.6540   20.9520 C   0  0  0  0  0  0  0  0  0  0  0  0
   52.4380   80.4230   23.4820 S   0  0  0  0  0  0  0  0  0  0  0  0
   54.7990   79.1630   26.6950 C   0  0  0  0  0  0  0  0  0  0  0  0
   54.6230   79.3960   28.0910 O   0  0  0  0  0  0  0  0  0  0  0  0
   57.4350   79.1580   30.4730 C   0  0  0  0  0  0  0  0  0  0  0  0
   58.3000   80.1190   31.0020 C   0  0  0  0  0  0  0  0  0  0  0  0
   61.6247   84.7634   33.3591 H   0  0  0  0  0  0  0  0  0  0  0  0
   59.9163   83.9296   33.4860 H   0  0  0  0  0  0  0  0  0  0  0  0
   61.7266   84.2534   31.0200 H   0  0  0  0  0  0  0  0  0  0  0  0
   60.7930   81.4860   31.1770 H   0  0  0  0  0  0  0  0  0  0  0  0
   59.6161   81.3397   28.1025 H   0  0  0  0  0  0  0  0  0  0  0  0
   58.0566   79.6359   27.1543 H   0  0  0  0  0  0  0  0  0  0  0  0
   55.0875   78.6601   29.9427 H   0  0  0  0  0  0  0  0  0  0  0  0
   54.9442   76.4341   27.9459 H   0  0  0  0  0  0  0  0  0  0  0  0
   54.1912   76.6085   29.6212 H   0  0  0  0  0  0  0  0  0  0  0  0
   52.3498   76.3940   28.3187 H   0  0  0  0  0  0  0  0  0  0  0  0
   52.6008   78.2155   28.4077 H   0  0  0  0  0  0  0  0  0  0  0  0
   53.5194   76.5308   26.0793 H   0  0  0  0  0  0  0  0  0  0  0  0
   51.8796   77.3249   26.1976 H   0  0  0  0  0  0  0  0  0  0  0  0
   53.7985   78.4962   24.9215 H   0  0  0  0  0  0  0  0  0  0  0  0
   51.6180   79.4930   26.4460 H   0  0  0  0  0  0  0  0  0  0  0  0
   52.6007   83.9010   24.3310 H   0  0  0  0  0  0  0  0  0  0  0  0
   51.0879   80.9563   21.5360 H   0  0  0  0  0  0  0  0  0  0  0  0
   51.0572   82.2761   20.3179 H   0  0  0  0  0  0  0  0  0  0  0  0
   52.4017   81.0849   20.3179 H   0  0  0  0  0  0  0  0  0  0  0  0
   55.5706   78.3892   26.5687 H   0  0  0  0  0  0  0  0  0  0  0  0
   55.0849   80.1260   26.2467 H   0  0  0  0  0  0  0  0  0  0  0  0
   56.8053   78.5530   31.1419 H   0  0  0  0  0  0  0  0  0  0  0  0
   58.3547   80.2612   32.0914 H   0  0  0  0  0  0  0  0  0  0  0  0
  1  2  2  0
  2  3  1  0
  3  4  2  0
  3  5  1  0
  5  6  1  0
  6  7  1  0
  7  8  2  0
  8  9  1  0
  9 10  1  0
 10 11  1  0
 11 12  1  0
 12 13  1  0
 13 14  1  0
 14 15  1  0
 15 16  1  0
 16 17  1  0
 17 18  2  0
 18 19  1  0
 19 20  2  0
 20 21  1  0
 21 22  1  0
 20 23  1  0
 15 24  1  0
 24 25  1  0
  9 26  2  0
 26 27  1  0
 27  6  2  0
 25 11  1  0
 23 17  1  0
  1 28  1  0
  1 29  1  0
  2 30  1  0
  5 31  1  0
  7 32  1  0
  8 33  1  0
 11 34  1  1
 12 35  1  0
 12 36  1  0
 13 37  1  0
 13 38  1  0
 14 39  1  0
 14 40  1  0
 15 41  1  6
 16 42  1  0
 19 43  1  0
 22 44  1  0
 22 45  1  0
 22 46  1  0
 24 47  1  0
 24 48  1  0
 26 49  1  0
 27 50  1  0
M  END
>  <meeko>  (1) 
{"is_sidechain": false}

>  <smiles>  (1) 
C=CC(=O)Nc1ccc(O[C@@H]2CCC[C@@H](Nc3ncc(OC)s3)CO2)cc1

>  <vina_score>  (1) 
-5.962

>  <job_id>  (1) 
43806b24aeef2768

$$$$

     RDKit          3D

 54 58  0  0  0  0  0  0  0  0999 V2000
   51.8100   83.1990   22.6710 C   0  0  0  0  0  0  0  0  0  0  0  0
   52.3190   82.0550   23.4720 C   0  0  0  0  0  0  0  0  0  0  0  0
   52.2940   80.8070   23.0490 N   0  0  0  0  0  0  0  0  0  0  0  0
   52.8520   80.0500   24.0460 C   0  0  0  0  0  0  0  0  0  0  0  0
   53.0850   78.6690   24.1220 C   0  0  0  0  0  0  0  0  0  0  0  0
   52.7480   77.8530   23.1120 F   0  0  0  0  0  0  0  0  0  0  0  0
   53.6860   78.1210   25.2600 C   0  0  0  0  0  0  0  0  0  0  0  0
   54.0670   78.9240   26.3500 C   0  0  0  0  0  0  0  0  0  0  0  0
   54.7110   78.3510   27.5540 C   0  0  0  0  0  0  0  0  0  0  0  0
   56.0050   78.7250   27.7500 N   0  0  0  0  0  0  0  0  0  0  0  0
   56.6630   78.2420   28.8220 C   0  0  0  0  0  0  0  0  0  0  0  0
   57.9700   78.6580   28.9400 N   0  0  0  0  0  0  0  0  0  0  0  0
   58.5480   79.7590   29.5320 C   0  0  0  0  0  0  0  0  0  0  0  0
   59.3100   80.6210   28.8460 N   0  0  0  0  0  0  0  0  0  0  0  0
   59.8270   81.6680   29.5120 C   0  0  0  0  0  0  0  0  0  0  0  0
   59.6110   81.9030   30.8500 C   0  0  0  0  0  0  0  0  0  0  0  0
   58.8310   80.9590   31.4880 C   0  0  0  0  0  0  0  0  0  0  0  0
   58.2900   79.8990   30.8460 N   0  0  0  0  0  0  0  0  0  0  0  0
   58.4970   81.1210   32.9470 C   0  0  0  0  0  0  0  0  0  0  0  0
   59.4400   82.1070   33.6420 C   0  0  0  0  0  0  0  0  0  0  0  0
   59.6000   83.3440   32.8670 N   0  0  0  0  0  0  0  0  0  0  0  0
   60.2370   83.0500   31.5760 C   0  0  0  0  0  0  0  0  0  0  0  0
   56.0920   77.4180   29.7110 N   0  0  0  0  0  0  0  0  0  0  0  0
   54.8090   77.0680   29.5040 C   0  0  0  0  0  0  0  0  0  0  0  0
   54.0690   77.5060   28.4380 C   0  0  0  0  0  0  0  0  0  0  0  0
   52.7910   77.1350   28.3010 F   0  0  0  0  0  0  0  0  0  0  0  0
   53.8360   80.3180   26.2680 C   0  0  0  0  0  0  0  0  0  0  0  0
   53.2260   80.8520   25.1180 C   0  0  0  0  0  0  0  0  0  0  0  0
   52.8670   82.1350   24.7390 N   0  0  0  0  0  0  0  0  0  0  0  0
   53.0810   83.3240   25.5610 C   0  0  0  0  0  0  0  0  0  0  0  0
   54.5510   83.7040   25.7470 C   0  0  0  0  0  0  0  0  0  0  0  0
   52.3400   83.2340   26.8950 C   0  0  0  0  0  0  0  0  0  0  0  0
   51.4573   83.9918   23.3470 H   0  0  0  0  0  0  0  0  0  0  0  0
   52.6186   83.5910   22.0366 H   0  0  0  0  0  0  0  0  0  0  0  0
   50.9774   82.8608   22.0366 H   0  0  0  0  0  0  0  0  0  0  0  0
   53.8649   77.0365   25.3034 H   0  0  0  0  0  0  0  0  0  0  0  0
   58.6390   78.0190   28.5530 H   0  0  0  0  0  0  0  0  0  0  0  0
   60.4582   82.3766   28.9558 H   0  0  0  0  0  0  0  0  0  0  0  0
   57.4654   81.4920   33.0367 H   0  0  0  0  0  0  0  0  0  0  0  0
   58.6093   80.1409   33.4335 H   0  0  0  0  0  0  0  0  0  0  0  0
   59.0286   82.3568   34.6311 H   0  0  0  0  0  0  0  0  0  0  0  0
   60.4270   81.6303   33.7344 H   0  0  0  0  0  0  0  0  0  0  0  0
   58.6810   83.7520   32.6920 H   0  0  0  0  0  0  0  0  0  0  0  0
   60.1655   83.9451   30.9406 H   0  0  0  0  0  0  0  0  0  0  0  0
   61.2798   82.7698   31.7860 H   0  0  0  0  0  0  0  0  0  0  0  0
   54.3293   76.3945   30.2294 H   0  0  0  0  0  0  0  0  0  0  0  0
   54.1310   80.9786   27.0966 H   0  0  0  0  0  0  0  0  0  0  0  0
   52.6426   84.1537   24.9871 H   0  0  0  0  0  0  0  0  0  0  0  0
   54.7813   83.7635   26.8210 H   0  0  0  0  0  0  0  0  0  0  0  0
   55.1892   82.9413   25.2769 H   0  0  0  0  0  0  0  0  0  0  0  0
   54.7396   84.6804   25.2769 H   0  0  0  0  0  0  0  0  0  0  0  0
   53.0607   83.3215   27.7214 H   0  0  0  0  0  0  0  0  0  0  0  0
   51.6048   84.0494   26.9618 H   0  0  0  0  0  0  0  0  0  0  0  0
   51.8213   82.2663   26.9618 H   0  0  0  0  0  0  0  0  0  0  0  0
  1  2  1  0
  2  3  2  0
  3  4  1  0
  4  5  2  0
  5  6  1  0
  5  7  1  0
  7  8  2  0
  8  9  1  0
  9 10  2  0
 10 11  1  0
 11 12  1  0
 12 13  1  0
 13 14  2  0
 14 15  1  0
 15 16  2  0
 16 17  1  0
 17 18  2  0
 17 19  1  0
 19 20  1  0
 20 21  1  0
 21 22  1  0
 11 23  2  0
 23 24  1  0
 24 25  2  0
 25 26  1  0
  8 27  1  0
 27 28  2  0
 28 29  1  0
 29 30  1  0
 30 31  1  0
 30 32  1  0
 29  2  1  0
 28  4  1  0
 25  9  1  0
 18 13  1  0
 22 16  1  0
  1 33  1  0
  1 34  1  0
  1 35  1  0
  7 36  1  0
 12 37  1  0
 15 38  1  0
 19 39  1  0
 19 40  1  0
 20 41  1  0
 20 42  1  0
 21 43  1  0
 22 44  1  0
 22 45  1  0
 24 46  1  0
 27 47  1  0
 30 48  1  0
 31 49  1  0
 31 50  1  0
 31 51  1  0
 32 52  1  0
 32 53  1  0
 32 54  1  0
M  END
>  <meeko>  (1) 
{"is_sidechain": false}

>  <smiles>  (1) 
Cc1nc2c(F)cc(-c3nc(Nc4ncc5c(n4)CCNC5)ncc3F)cc2n1C(C)C

>  <vina_score>  (1) 
-9.380

>  <job_id>  (1) 
492dc6c8b99dbc72

$$$$

     RDKit          3D

 71 76  0  0  0  0  0  0  0  0999 V2000
   51.8100   82.8990   22.4590 C   0  0  0  0  0  0  0  0  0  0  0  0
   52.3480   81.8000   23.3010 C   0  0  0  0  0  0  0  0  0  0  0  0
   52.3960   80.5370   22.9360 N   0  0  0  0  0  0  0  0  0  0  0  0
   52.9570   79.8550   23.9860 C   0  0  0  0  0  0  0  0  0  0  0  0
   53.2470   78.4910   24.1320 C   0  0  0  0  0  0  0  0  0  0  0  0
   52.9730   77.6160   23.1520 F   0  0  0  0  0  0  0  0  0  0  0  0
   53.8260   78.0240   25.3150 C   0  0  0  0  0  0  0  0  0  0  0  0
   54.1280   78.8890   26.3810 C   0  0  0  0  0  0  0  0  0  0  0  0
   54.7410   78.3540   27.6180 C   0  0  0  0  0  0  0  0  0  0  0  0
   56.0300   78.7260   27.8320 N   0  0  0  0  0  0  0  0  0  0  0  0
   56.6600   78.2850   28.9370 C   0  0  0  0  0  0  0  0  0  0  0  0
   57.9640   78.7140   29.0850 N   0  0  0  0  0  0  0  0  0  0  0  0
   58.5700   79.8470   29.5940 C   0  0  0  0  0  0  0  0  0  0  0  0
   59.0690   80.8850   28.8190 C   0  0  0  0  0  0  0  0  0  0  0  0
   59.6610   81.9870   29.4370 C   0  0  0  0  0  0  0  0  0  0  0  0
   59.7560   82.0330   30.8260 C   0  0  0  0  0  0  0  0  0  0  0  0
   59.2250   80.9630   31.5390 C   0  0  0  0  0  0  0  0  0  0  0  0
   58.6470   79.8880   30.9430 N   0  0  0  0  0  0  0  0  0  0  0  0
   59.3250   80.9320   33.0390 C   0  0  0  0  0  0  0  0  0  0  0  0
   59.6170   82.3150   33.6280 C   0  0  0  0  0  0  0  0  0  0  0  0
   60.7460   82.9490   32.9200 N   0  0  0  0  0  0  0  0  0  0  0  0
   61.1820   84.1950   33.5930 C   0  0  0  0  0  0  0  0  0  0  0  0
   62.6210   84.1860   34.1860 C   0  0  1  0  0  0  0  0  0  0  0  0
   63.1010   82.8470   34.7850 C   0  0  0  0  0  0  0  0  0  0  0  0
   63.4750   81.8500   33.7630 N   0  0  0  0  0  0  0  0  0  0  0  0
   64.4970   82.4630   32.8940 C   0  0  0  0  0  0  0  0  0  0  0  0
   64.0080   83.7790   32.2700 C   0  0  0  0  0  0  0  0  0  0  0  0
   63.5890   84.7260   33.2610 O   0  0  0  0  0  0  0  0  0  0  0  0
   60.3350   83.2320   31.5290 C   0  0  0  0  0  0  0  0  0  0  0  0
   56.0720   77.4840   29.8380 N   0  0  0  0  0  0  0  0  0  0  0  0
   54.7960   77.1210   29.6030 C   0  0  0  0  0  0  0  0  0  0  0  0
   54.0810   77.5300   28.5070 C   0  0  0  0  0  0  0  0  0  0  0  0
   52.8190   77.1180   28.3300 F   0  0  0  0  0  0  0  0  0  0  0  0
   53.8460   80.2660   26.2280 C   0  0  0  0  0  0  0  0  0  0  0  0
   53.2610   80.7230   25.0320 C   0  0  0  0  0  0  0  0  0  0  0  0
   52.8650   81.9660   24.5750 N   0  0  0  0  0  0  0  0  0  0  0  0
   52.9600   83.2390   25.2870 C   0  0  0  0  0  0  0  0  0  0  0  0
   54.4080   83.6980   25.4710 C   0  0  0  0  0  0  0  0  0  0  0  0
   52.1850   83.2330   26.6050 C   0  0  0  0  0  0  0  0  0  0  0  0
   51.4187   83.6983   23.1055 H   0  0  0  0  0  0  0  0  0  0  0  0
   52.6131   83.3012   21.8240 H   0  0  0  0  0  0  0  0  0  0  0  0
   50.9998   82.5114   21.8240 H   0  0  0  0  0  0  0  0  0  0  0  0
   54.0512   76.9519   25.4145 H   0  0  0  0  0  0  0  0  0  0  0  0
   58.6330   78.0530   28.7210 H   0  0  0  0  0  0  0  0  0  0  0  0
   58.9980   80.8389   27.7223 H   0  0  0  0  0  0  0  0  0  0  0  0
   60.0514   82.8167   28.8294 H   0  0  0  0  0  0  0  0  0  0  0  0
   58.3727   80.5658   33.4500 H   0  0  0  0  0  0  0  0  0  0  0  0
   60.1592   80.2674   33.3081 H   0  0  0  0  0  0  0  0  0  0  0  0
   58.7235   82.9484   33.5255 H   0  0  0  0  0  0  0  0  0  0  0  0
   59.8808   82.2016   34.6899 H   0  0  0  0  0  0  0  0  0  0  0  0
   61.1268   85.0111   32.8575 H   0  0  0  0  0  0  0  0  0  0  0  0
   60.5085   84.3166   34.4542 H   0  0  0  0  0  0  0  0  0  0  0  0
   62.5429   84.8553   35.0555 H   0  0  0  0  0  0  0  0  0  0  0  0
   63.9783   83.0429   35.4190 H   0  0  0  0  0  0  0  0  0  0  0  0
   62.2609   82.4268   35.3574 H   0  0  0  0  0  0  0  0  0  0  0  0
   62.6440   81.7090   33.1790 H   0  0  0  0  0  0  0  0  0  0  0  0
   65.3967   82.6669   33.4932 H   0  0  0  0  0  0  0  0  0  0  0  0
   64.7141   81.7596   32.0767 H   0  0  0  0  0  0  0  0  0  0  0  0
   64.8282   84.2192   31.6839 H   0  0  0  0  0  0  0  0  0  0  0  0
   63.1400   83.5491   31.6347 H   0  0  0  0  0  0  0  0  0  0  0  0
   59.5766   84.0286   31.5437 H   0  0  0  0  0  0  0  0  0  0  0  0
   61.2376   83.5310   30.9759 H   0  0  0  0  0  0  0  0  0  0  0  0
   54.3009   76.4605   30.3301 H   0  0  0  0  0  0  0  0  0  0  0  0
   54.0816   80.9739   27.0363 H   0  0  0  0  0  0  0  0  0  0  0  0
   52.4731   83.9864   24.6433 H   0  0  0  0  0  0  0  0  0  0  0  0
   54.6361   83.7703   26.5447 H   0  0  0  0  0  0  0  0  0  0  0  0
   55.0858   82.9707   25.0003 H   0  0  0  0  0  0  0  0  0  0  0  0
   54.5430   84.6830   25.0003 H   0  0  0  0  0  0  0  0  0  0  0  0
   52.8931   83.2385   27.4468 H   0  0  0  0  0  0  0  0  0  0  0  0
   51.5452   84.1262   26.6582 H   0  0  0  0  0  0  0  0  0  0  0  0
   51.5591   82.3300   26.6582 H   0  0  0  0  0  0  0  0  0  0  0  0
  1  2  1  0
  2  3  2  0
  3  4  1  0
  4  5  2  0
  5  6  1  0
  5  7  1  0
  7  8  2  0
  8  9  1  0
  9 10  2  0
 10 11  1  0
 11 12  1  0
 12 13  1  0
 13 14  1  0
 14 15  2  0
 15 16  1  0
 16 17  2  0
 17 18  1  0
 17 19  1  0
 19 20  1  0
 20 21  1  0
 21 22  1  0
 22 23  1  0
 23 24  1  0
 24 25  1  0
 25 26  1  0
 26 27  1  0
 27 28  1  0
 21 29  1  0
 11 30  2  0
 30 31  1  0
 31 32  2  0
 32 33  1  0
  8 34  1  0
 34 35  2  0
 35 36  1  0
 36 37  1  0
 37 38  1  0
 37 39  1  0
 36  2  1  0
 35  4  1  0
 32  9  1  0
 18 13  2  0
 28 23  1  0
 29 16  1  0
  1 40  1  0
  1 41  1  0
  1 42  1  0
  7 43  1  0
 12 44  1  0
 14 45  1  0
 15 46  1  0
 19 47  1  0
 19 48  1  0
 20 49  1  0
 20 50  1  0
 22 51  1  0
 22 52  1  0
 23 53  1  1
 24 54  1  0
 24 55  1  0
 25 56  1  0
 26 57  1  0
 26 58  1  0
 27 59  1  0
 27 60  1  0
 29 61  1  0
 29 62  1  0
 31 63  1  0
 34 64  1  0
 37 65  1  0
 38 66  1  0
 38 67  1  0
 38 68  1  0
 39 69  1  0
 39 70  1  0
 39 71  1  0
M  END
>  <meeko>  (1) 
{"is_sidechain": false}

>  <smiles>  (1) 
Cc1nc2c(F)cc(-c3nc(Nc4ccc5c(n4)CCN(C[C@H]4CNCCO4)C5)ncc3F)cc2n1C(C)C

>  <vina_score>  (1) 
-9.113

>  <job_id>  (1) 
49f30252cea980ff

$$$$

     RDKit          3D

 51 54  0  0  0  0  0  0  0  0999 V2000
   57.8060   87.1790   32.9350 C   0  0  0  0  0  0  0  0  0  0  0  0
   58.1670   86.6560   31.6090 N   0  0  0  0  0  0  0  0  0  0  0  0
   58.0270   87.7100   30.5920 C   0  0  0  0  0  0  0  0  0  0  0  0
   56.9970   87.2990   29.5640 C   0  0  0  0  0  0  0  0  0  0  0  0
   57.0570   87.6090   28.2560 C   0  0  0  0  0  0  0  0  0  0  0  0
   56.1030   87.1190   27.2010 C   0  0  0  0  0  0  0  0  0  0  0  0
   55.9560   85.7010   27.2350 O   0  0  0  0  0  0  0  0  0  0  0  0
   54.9370   85.2440   26.3430 C   0  0  0  0  0  0  0  0  0  0  0  0
   54.9700   83.7450   26.2640 C   0  0  0  0  0  0  0  0  0  0  0  0
   54.1300   83.0510   25.4040 C   0  0  0  0  0  0  0  0  0  0  0  0
   54.1440   81.7090   25.2540 N   0  0  0  0  0  0  0  0  0  0  0  0
   55.0390   81.0250   26.0080 C   0  0  0  0  0  0  0  0  0  0  0  0
   55.9460   81.6010   26.9000 C   0  0  0  0  0  0  0  0  0  0  0  0
   55.8800   82.9950   27.0220 C   0  0  0  0  0  0  0  0  0  0  0  0
   56.9280   80.8040   27.6510 C   0  0  0  0  0  0  0  0  0  0  0  0
   56.8910   79.4240   27.6790 C   0  0  0  0  0  0  0  0  0  0  0  0
   57.8830   78.8100   28.3970 C   0  0  0  0  0  0  0  0  0  0  0  0
   58.8420   79.4810   29.0540 N   0  0  0  0  0  0  0  0  0  0  0  0
   58.8150   80.8230   28.9890 C   0  0  0  0  0  0  0  0  0  0  0  0
   57.8910   81.5020   28.2950 N   0  0  0  0  0  0  0  0  0  0  0  0
   59.8140   81.4480   29.7270 N   0  0  0  0  0  0  0  0  0  0  0  0
   59.8210   82.3590   30.7890 C   0  0  0  0  0  0  0  0  0  0  0  0
   59.9700   81.8540   32.0910 C   0  0  0  0  0  0  0  0  0  0  0  0
   59.9610   82.6950   33.2050 C   0  0  0  0  0  0  0  0  0  0  0  0
   59.8030   84.0660   33.0350 C   0  0  0  0  0  0  0  0  0  0  0  0
   59.6530   84.6100   31.7520 C   0  0  0  0  0  0  0  0  0  0  0  0
   59.6900   83.7440   30.6390 C   0  0  0  0  0  0  0  0  0  0  0  0
   59.5380   86.1160   31.6030 C   0  0  0  0  0  0  0  0  0  0  0  0
   58.2473   86.5397   33.7139 H   0  0  0  0  0  0  0  0  0  0  0  0
   58.1895   88.2045   33.0415 H   0  0  0  0  0  0  0  0  0  0  0  0
   56.7112   87.1841   33.0415 H   0  0  0  0  0  0  0  0  0  0  0  0
   57.7064   88.6441   31.0764 H   0  0  0  0  0  0  0  0  0  0  0  0
   58.9954   87.8634   30.0934 H   0  0  0  0  0  0  0  0  0  0  0  0
   56.1383   86.7048   29.9098 H   0  0  0  0  0  0  0  0  0  0  0  0
   57.8700   88.2751   27.9316 H   0  0  0  0  0  0  0  0  0  0  0  0
   55.1195   87.5827   27.3677 H   0  0  0  0  0  0  0  0  0  0  0  0
   56.5102   87.3963   26.2175 H   0  0  0  0  0  0  0  0  0  0  0  0
   53.9537   85.5693   26.7135 H   0  0  0  0  0  0  0  0  0  0  0  0
   55.1122   85.6659   25.3423 H   0  0  0  0  0  0  0  0  0  0  0  0
   53.4088   83.6296   24.8082 H   0  0  0  0  0  0  0  0  0  0  0  0
   55.0519   79.9295   25.9094 H   0  0  0  0  0  0  0  0  0  0  0  0
   56.5530   83.5093   27.7238 H   0  0  0  0  0  0  0  0  0  0  0  0
   56.1110   78.8515   27.1557 H   0  0  0  0  0  0  0  0  0  0  0  0
   57.8942   77.7108   28.4372 H   0  0  0  0  0  0  0  0  0  0  0  0
   60.6840   80.9740   29.5340 H   0  0  0  0  0  0  0  0  0  0  0  0
   60.0967   80.7710   32.2362 H   0  0  0  0  0  0  0  0  0  0  0  0
   60.0786   82.2744   34.2146 H   0  0  0  0  0  0  0  0  0  0  0  0
   59.7957   84.7281   33.9134 H   0  0  0  0  0  0  0  0  0  0  0  0
   59.6139   84.1685   29.6271 H   0  0  0  0  0  0  0  0  0  0  0  0
   60.0879   86.5808   32.4346 H   0  0  0  0  0  0  0  0  0  0  0  0
   59.9485   86.3512   30.6099 H   0  0  0  0  0  0  0  0  0  0  0  0
  1  2  1  0
  2  3  1  0
  3  4  1  0
  4  5  2  0
  5  6  1  0
  6  7  1  0
  7  8  1  0
  8  9  1  0
  9 10  1  0
 10 11  2  0
 11 12  1  0
 12 13  2  0
 13 14  1  0
 13 15  1  0
 15 16  1  0
 16 17  2  0
 17 18  1  0
 18 19  2  0
 19 20  1  0
 19 21  1  0
 21 22  1  0
 22 23  1  0
 23 24  2  0
 24 25  1  0
 25 26  2  0
 26 27  1  0
 26 28  1  0
 28  2  1  0
 14  9  2  0
 20 15  2  0
 27 22  2  0
  1 29  1  0
  1 30  1  0
  1 31  1  0
  3 32  1  0
  3 33  1  0
  4 34  1  0
  5 35  1  0
  6 36  1  0
  6 37  1  0
  8 38  1  0
  8 39  1  0
 10 40  1  0
 12 41  1  0
 14 42  1  0
 16 43  1  0
 17 44  1  0
 21 45  1  0
 23 46  1  0
 24 47  1  0
 25 48  1  0
 27 49  1  0
 28 50  1  0
 28 51  1  0
M  END
>  <meeko>  (1) 
{"is_sidechain": false}

>  <smiles>  (1) 
CN1C/C=C/COCc2cncc(c2)-c2ccnc(n2)Nc2cccc(c2)C1

>  <vina_score>  (1) 
-4.759

>  <job_id>  (1) 
4d8fa3cebd055182

$$$$

     RDKit          3D

 54 57  0  0  0  0  0  0  0  0999 V2000
   52.5600   75.3720   27.1210 C   0  0  0  0  0  0  0  0  0  0  0  0
   52.5120   76.8850   27.2550 C   0  0  0  0  0  0  0  0  0  0  0  0
   53.6850   77.4130   27.9230 N   0  0  0  0  0  0  0  0  0  0  0  0
   54.5000   78.3260   27.3000 C   0  0  0  0  0  0  0  0  0  0  0  0
   54.2960   78.7190   26.1550 O   0  0  0  0  0  0  0  0  0  0  0  0
   55.5640   78.7720   28.0840 N   0  0  0  0  0  0  0  0  0  0  0  0
   56.4300   79.7700   27.4620 C   0  0  0  0  0  0  0  0  0  0  0  0
   57.2240   80.5720   28.4870 C   0  0  0  0  0  0  0  0  0  0  0  0
   57.9880   79.6450   29.4370 C   0  0  0  0  0  0  0  0  0  0  0  0
   58.7630   80.4840   30.4670 C   0  0  0  0  0  0  0  0  0  0  0  0
   58.5160   80.2370   31.7210 N   0  0  0  0  0  0  0  0  0  0  0  0
   59.1620   80.9940   32.6460 C   0  0  0  0  0  0  0  0  0  0  0  0
   59.0960   80.9790   34.0200 C   0  0  0  0  0  0  0  0  0  0  0  0
   59.9590   81.9980   34.4350 C   0  0  0  0  0  0  0  0  0  0  0  0
   60.5450   82.6230   33.4160 N   0  0  0  0  0  0  0  0  0  0  0  0
   60.0650   82.0010   32.2960 N   0  0  0  0  0  0  0  0  0  0  0  0
   60.3590   82.2770   30.9290 C   0  0  0  0  0  0  0  0  0  0  0  0
   61.2440   83.3240   30.6490 N   0  0  0  0  0  0  0  0  0  0  0  0
   62.6590   83.2530   30.6650 C   0  0  0  0  0  0  0  0  0  0  0  0
   63.3750   82.1000   31.0200 C   0  0  0  0  0  0  0  0  0  0  0  0
   64.7730   82.1060   31.0620 C   0  0  0  0  0  0  0  0  0  0  0  0
   65.4670   83.2710   30.7630 C   0  0  0  0  0  0  0  0  0  0  0  0
   66.8070   83.2550   30.8070 F   0  0  0  0  0  0  0  0  0  0  0  0
   64.7780   84.4320   30.4300 C   0  0  0  0  0  0  0  0  0  0  0  0
   65.6280   85.8860   30.0670 Cl  0  0  0  0  0  0  0  0  0  0  0  0
   63.3810   84.4250   30.3880 C   0  0  0  0  0  0  0  0  0  0  0  0
   59.7150   81.5620   29.9720 C   0  0  0  0  0  0  0  0  0  0  0  0
   59.9060   81.7340   28.4950 C   0  0  0  0  0  0  0  0  0  0  0  0
   56.9980   78.6800   30.1060 C   0  0  0  0  0  0  0  0  0  0  0  0
   56.2120   77.8940   29.0630 C   0  0  0  0  0  0  0  0  0  0  0  0
   52.5745   74.9156   28.1217 H   0  0  0  0  0  0  0  0  0  0  0  0
   51.6724   75.0242   26.5721 H   0  0  0  0  0  0  0  0  0  0  0  0
   53.4678   75.0811   26.5721 H   0  0  0  0  0  0  0  0  0  0  0  0
   52.4472   77.3278   26.2501 H   0  0  0  0  0  0  0  0  0  0  0  0
   51.6324   77.1424   27.8633 H   0  0  0  0  0  0  0  0  0  0  0  0
   53.6010   77.5490   28.9190 H   0  0  0  0  0  0  0  0  0  0  0  0
   57.1355   79.2568   26.7919 H   0  0  0  0  0  0  0  0  0  0  0  0
   55.7884   80.4732   26.9107 H   0  0  0  0  0  0  0  0  0  0  0  0
   57.9418   81.2182   27.9604 H   0  0  0  0  0  0  0  0  0  0  0  0
   56.5216   81.1779   29.0782 H   0  0  0  0  0  0  0  0  0  0  0  0
   58.7226   79.0449   28.8800 H   0  0  0  0  0  0  0  0  0  0  0  0
   58.4951   80.3107   34.6543 H   0  0  0  0  0  0  0  0  0  0  0  0
   60.1348   82.2555   35.4899 H   0  0  0  0  0  0  0  0  0  0  0  0
   60.9230   83.9590   29.9260 H   0  0  0  0  0  0  0  0  0  0  0  0
   62.8291   81.1780   31.2689 H   0  0  0  0  0  0  0  0  0  0  0  0
   65.3209   81.1909   31.3310 H   0  0  0  0  0  0  0  0  0  0  0  0
   62.8405   85.3490   30.1348 H   0  0  0  0  0  0  0  0  0  0  0  0
   60.7120   82.4598   28.3116 H   0  0  0  0  0  0  0  0  0  0  0  0
   60.1741   80.7668   28.0449 H   0  0  0  0  0  0  0  0  0  0  0  0
   58.9721   82.1016   28.0449 H   0  0  0  0  0  0  0  0  0  0  0  0
   57.5554   77.9765   30.7419 H   0  0  0  0  0  0  0  0  0  0  0  0
   56.2900   79.2669   30.7095 H   0  0  0  0  0  0  0  0  0  0  0  0
   56.9011   77.2198   28.5334 H   0  0  0  0  0  0  0  0  0  0  0  0
   55.4252   77.3303   29.5856 H   0  0  0  0  0  0  0  0  0  0  0  0
  1  2  1  0
  2  3  1  0
  3  4  1  0
  4  5  2  0
  4  6  1  0
  6  7  1  0
  7  8  1  0
  8  9  1  0
  9 10  1  0
 10 11  2  0
 11 12  1  0
 12 13  2  0
 13 14  1  0
 14 15  2  0
 15 16  1  0
 16 17  1  0
 17 18  1  0
 18 19  1  0
 19 20  1  0
 20 21  2  0
 21 22  1  0
 22 23  1  0
 22 24  2  0
 24 25  1  0
 24 26  1  0
 17 27  2  0
 27 28  1  0
  9 29  1  0
 29 30  1  0
 30  6  1  0
 27 10  1  0
 16 12  1  0
 26 19  2  0
  1 31  1  0
  1 32  1  0
  1 33  1  0
  2 34  1  0
  2 35  1  0
  3 36  1  0
  7 37  1  0
  7 38  1  0
  8 39  1  0
  8 40  1  0
  9 41  1  0
 13 42  1  0
 14 43  1  0
 18 44  1  0
 20 45  1  0
 21 46  1  0
 26 47  1  0
 28 48  1  0
 28 49  1  0
 28 50  1  0
 29 51  1  0
 29 52  1  0
 30 53  1  0
 30 54  1  0
M  END
>  <meeko>  (1) 
{"is_sidechain": false}

>  <smiles>  (1) 
CCNC(=O)N1CCC(c2nc3ccnn3c(Nc3ccc(F)c(Cl)c3)c2C)CC1

>  <vina_score>  (1) 
-7.758

>  <job_id>  (1) 
50450d69524bcf53

$$$$

     RDKit          3D

 41 45  0  0  0  0  0  0  0  0999 V2000
   53.2010   79.4220   24.9770 C   0  0  0  0  0  0  0  0  0  0  0  0
   54.0350   79.1880   26.1800 C   0  0  0  0  0  0  0  0  0  0  0  0
   53.8630   78.2210   27.0600 N   0  0  0  0  0  0  0  0  0  0  0  0
   54.8810   78.3620   27.9810 C   0  0  0  0  0  0  0  0  0  0  0  0
   55.1960   77.6060   29.1210 C   0  0  0  0  0  0  0  0  0  0  0  0
   54.4490   76.5510   29.4800 F   0  0  0  0  0  0  0  0  0  0  0  0
   56.3100   77.9440   29.8940 C   0  0  0  0  0  0  0  0  0  0  0  0
   57.1270   79.0360   29.5580 C   0  0  0  0  0  0  0  0  0  0  0  0
   58.3440   79.3360   30.4140 C   0  0  0  0  0  0  0  0  0  0  0  0
   58.8350   80.7430   30.3140 C   0  0  0  0  0  0  0  0  0  0  0  0
   59.4660   81.1820   29.1720 N   0  0  0  0  0  0  0  0  0  0  0  0
   59.8060   82.4820   29.1980 N   0  0  0  0  0  0  0  0  0  0  0  0
   59.4140   82.8700   30.4040 C   0  0  0  0  0  0  0  0  0  0  0  0
   59.5540   84.1370   30.8970 N   0  0  0  0  0  0  0  0  0  0  0  0
   59.1120   84.4480   32.1520 C   0  0  0  0  0  0  0  0  0  0  0  0
   59.2630   85.9840   32.7730 S   0  0  0  0  0  0  0  0  0  0  0  0
   58.5350   83.4400   32.8950 N   0  0  0  0  0  0  0  0  0  0  0  0
   58.3570   82.1270   32.4940 C   0  0  0  0  0  0  0  0  0  0  0  0
   57.6860   80.9860   33.4880 S   0  0  0  0  0  0  0  0  0  0  0  0
   58.8170   81.8400   31.1590 C   0  0  0  0  0  0  0  0  0  0  0  0
   56.8350   79.7920   28.4040 C   0  0  0  0  0  0  0  0  0  0  0  0
   55.7000   79.4400   27.6540 C   0  0  0  0  0  0  0  0  0  0  0  0
   55.1130   79.9620   26.5300 N   0  0  0  0  0  0  0  0  0  0  0  0
   55.6240   81.1250   25.7700 C   0  0  0  0  0  0  0  0  0  0  0  0
   54.7680   82.3360   25.4720 C   0  0  0  0  0  0  0  0  0  0  0  0
   55.9170   82.4570   26.4250 C   0  0  0  0  0  0  0  0  0  0  0  0
   52.1844   79.7072   25.2854 H   0  0  0  0  0  0  0  0  0  0  0  0
   53.6425   80.2310   24.3764 H   0  0  0  0  0  0  0  0  0  0  0  0
   53.1573   78.5014   24.3764 H   0  0  0  0  0  0  0  0  0  0  0  0
   56.5518   77.3431   30.7831 H   0  0  0  0  0  0  0  0  0  0  0  0
   58.0843   79.1357   31.4640 H   0  0  0  0  0  0  0  0  0  0  0  0
   59.1556   78.6924   30.0436 H   0  0  0  0  0  0  0  0  0  0  0  0
   59.6760   80.6500   28.3330 H   0  0  0  0  0  0  0  0  0  0  0  0
   59.9890   84.8280   30.3020 H   0  0  0  0  0  0  0  0  0  0  0  0
   58.2210   83.6800   33.8260 H   0  0  0  0  0  0  0  0  0  0  0  0
   57.4766   80.6322   28.1000 H   0  0  0  0  0  0  0  0  0  0  0  0
   56.1999   80.4063   25.1685 H   0  0  0  0  0  0  0  0  0  0  0  0
   54.8213   82.8163   24.4839 H   0  0  0  0  0  0  0  0  0  0  0  0
   53.6915   82.5566   25.5226 H   0  0  0  0  0  0  0  0  0  0  0  0
   56.8128   83.0260   26.1356 H   0  0  0  0  0  0  0  0  0  0  0  0
   56.0311   82.8029   27.4630 H   0  0  0  0  0  0  0  0  0  0  0  0
  1  2  1  0
  2  3  2  0
  3  4  1  0
  4  5  2  0
  5  6  1  0
  5  7  1  0
  7  8  2  0
  8  9  1  0
  9 10  1  0
 10 11  1  0
 11 12  1  0
 12 13  2  0
 13 14  1  0
 14 15  1  0
 15 16  2  0
 15 17  1  0
 17 18  1  0
 18 19  2  0
 18 20  1  0
  8 21  1  0
 21 22  2  0
 22 23  1  0
 23 24  1  0
 24 25  1  0
 25 26  1  0
 23  2  1  0
 26 24  1  0
 22  4  1  0
 20 10  2  0
 20 13  1  0
  1 27  1  0
  1 28  1  0
  1 29  1  0
  7 30  1  0
  9 31  1  0
  9 32  1  0
 11 33  1  0
 14 34  1  0
 17 35  1  0
 21 36  1  0
 24 37  1  0
 25 38  1  0
 25 39  1  0
 26 40  1  0
 26 41  1  0
M  END
>  <meeko>  (1) 
{"is_sidechain": false}

>  <smiles>  (1) 
Cc1nc2c(F)cc(Cc3[nH]nc4[nH]c(=S)[nH]c(=S)c34)cc2n1C1CC1

>  <vina_score>  (1) 
-7.962

>  <job_id>  (1) 
5691eb38fd717f52

$$$$

     RDKit          3D

 69 72  0  0  0  0  0  0  0  0999 V2000
   56.8190   81.3110   27.2700 C   0  0  0  0  0  0  0  0  0  0  0  0
   57.9910   80.5630   27.5950 O   0  0  0  0  0  0  0  0  0  0  0  0
   58.2250   80.6220   28.9530 C   0  0  0  0  0  0  0  0  0  0  0  0
   58.7040   81.8170   29.5120 C   0  0  0  0  0  0  0  0  0  0  0  0
   58.9340   81.9390   30.8860 C   0  0  0  0  0  0  0  0  0  0  0  0
   59.4270   83.1000   31.4870 N   0  0  0  0  0  0  0  0  0  0  0  0
   59.2490   83.3370   32.9350 C   0  0  0  0  0  0  0  0  0  0  0  0
   60.3840   82.7030   33.7640 C   0  0  0  0  0  0  0  0  0  0  0  0
   61.7240   83.0470   33.2620 N   0  0  0  0  0  0  0  0  0  0  0  0
   62.8720   82.9630   34.0400 C   0  0  0  0  0  0  0  0  0  0  0  0
   62.6850   82.8730   35.5340 C   0  0  0  0  0  0  0  0  0  0  0  0
   64.0060   82.9800   33.5590 O   0  0  0  0  0  0  0  0  0  0  0  0
   61.8920   82.9440   31.8030 C   0  0  0  0  0  0  0  0  0  0  0  0
   60.7440   83.6030   31.0200 C   0  0  0  0  0  0  0  0  0  0  0  0
   58.6950   80.7850   31.6510 C   0  0  0  0  0  0  0  0  0  0  0  0
   58.1910   79.5950   31.0960 C   0  0  0  0  0  0  0  0  0  0  0  0
   57.9170   79.5000   29.7360 C   0  0  0  0  0  0  0  0  0  0  0  0
   57.4130   78.3550   29.1100 N   0  0  0  0  0  0  0  0  0  0  0  0
   56.1410   77.9040   28.7890 C   0  0  0  0  0  0  0  0  0  0  0  0
   55.6270   76.9940   29.6260 N   0  0  0  0  0  0  0  0  0  0  0  0
   54.3990   76.5190   29.3470 C   0  0  0  0  0  0  0  0  0  0  0  0
   53.6440   76.9090   28.2620 C   0  0  0  0  0  0  0  0  0  0  0  0
   52.2900   76.3260   28.0200 C   0  0  0  0  0  0  0  0  0  0  0  0
   54.2340   77.8750   27.4570 C   0  0  0  0  0  0  0  0  0  0  0  0
   53.5500   78.4050   26.1930 C   0  0  0  0  0  0  0  0  0  0  0  0
   54.4360   78.7870   25.2310 F   0  0  0  0  0  0  0  0  0  0  0  0
   52.7700   77.4550   25.6050 F   0  0  0  0  0  0  0  0  0  0  0  0
   52.6910   79.5400   26.5200 N   0  0  0  0  0  0  0  0  0  0  0  0
   53.2150   80.8290   26.0630 C   0  0  0  0  0  0  0  0  0  0  0  0
   53.1100   81.8270   27.2250 C   0  0  0  0  0  0  0  0  0  0  0  0
   53.7720   83.1670   26.8890 C   0  0  0  0  0  0  0  0  0  0  0  0
   53.7770   83.4920   25.3950 C   0  0  0  0  0  0  0  0  0  0  0  0
   52.5600   82.9100   24.6930 C   0  0  0  0  0  0  0  0  0  0  0  0
   52.4890   81.3840   24.8210 C   0  0  0  0  0  0  0  0  0  0  0  0
   55.4850   78.3520   27.7130 N   0  0  0  0  0  0  0  0  0  0  0  0
   56.3190   81.6301   28.1964 H   0  0  0  0  0  0  0  0  0  0  0  0
   57.1007   82.1967   26.6816 H   0  0  0  0  0  0  0  0  0  0  0  0
   56.1343   80.6825   26.6816 H   0  0  0  0  0  0  0  0  0  0  0  0
   58.9029   82.6765   28.8549 H   0  0  0  0  0  0  0  0  0  0  0  0
   59.2368   84.4214   33.1192 H   0  0  0  0  0  0  0  0  0  0  0  0
   58.3007   82.8723   33.2430 H   0  0  0  0  0  0  0  0  0  0  0  0
   60.2979   83.0546   34.8027 H   0  0  0  0  0  0  0  0  0  0  0  0
   60.2752   81.6109   33.6898 H   0  0  0  0  0  0  0  0  0  0  0  0
   63.5652   83.2966   36.0399 H   0  0  0  0  0  0  0  0  0  0  0  0
   61.7873   83.4377   35.8258 H   0  0  0  0  0  0  0  0  0  0  0  0
   62.5662   81.8191   35.8258 H   0  0  0  0  0  0  0  0  0  0  0  0
   62.8354   83.4355   31.5228 H   0  0  0  0  0  0  0  0  0  0  0  0
   61.8954   81.8745   31.5460 H   0  0  0  0  0  0  0  0  0  0  0  0
   60.7863   84.6923   31.1672 H   0  0  0  0  0  0  0  0  0  0  0  0
   60.8574   83.3547   29.9544 H   0  0  0  0  0  0  0  0  0  0  0  0
   58.9111   80.8134   32.7292 H   0  0  0  0  0  0  0  0  0  0  0  0
   58.0110   78.7269   31.7472 H   0  0  0  0  0  0  0  0  0  0  0  0
   58.1120   77.7770   28.6610 H   0  0  0  0  0  0  0  0  0  0  0  0
   53.9700   75.7706   30.0295 H   0  0  0  0  0  0  0  0  0  0  0  0
   51.8034   76.1165   28.9840 H   0  0  0  0  0  0  0  0  0  0  0  0
   51.6796   77.0410   27.4489 H   0  0  0  0  0  0  0  0  0  0  0  0
   52.3900   75.3912   27.4489 H   0  0  0  0  0  0  0  0  0  0  0  0
   51.8060   79.3420   26.0570 H   0  0  0  0  0  0  0  0  0  0  0  0
   54.2604   80.6777   25.7560 H   0  0  0  0  0  0  0  0  0  0  0  0
   52.0473   82.0016   27.4488 H   0  0  0  0  0  0  0  0  0  0  0  0
   53.6325   81.3967   28.0921 H   0  0  0  0  0  0  0  0  0  0  0  0
   53.2284   83.9649   27.4162 H   0  0  0  0  0  0  0  0  0  0  0  0
   54.8229   83.0951   27.2061 H   0  0  0  0  0  0  0  0  0  0  0  0
   53.7748   84.5845   25.2670 H   0  0  0  0  0  0  0  0  0  0  0  0
   54.6783   83.0468   24.9484 H   0  0  0  0  0  0  0  0  0  0  0  0
   51.6531   83.3449   25.1384 H   0  0  0  0  0  0  0  0  0  0  0  0
   52.6394   83.1547   23.6235 H   0  0  0  0  0  0  0  0  0  0  0  0
   51.4306   81.0896   24.8776 H   0  0  0  0  0  0  0  0  0  0  0  0
   52.9962   80.9647   23.9395 H   0  0  0  0  0  0  0  0  0  0  0  0
  1  2  1  0
  2  3  1  0
  3  4  1  0
  4  5  2  0
  5  6  1  0
  6  7  1  0
  7  8  1  0
  8  9  1  0
  9 10  1  0
 10 11  1  0
 10 12  2  0
  9 13  1  0
 13 14  1  0
  5 15  1  0
 15 16  2  0
 16 17  1  0
 17 18  1  0
 18 19  1  0
 19 20  2  0
 20 21  1  0
 21 22  2  0
 22 23  1  0
 22 24  1  0
 24 25  1  0
 25 26  1  0
 25 27  1  0
 25 28  1  0
 28 29  1  0
 29 30  1  0
 30 31  1  0
 31 32  1  0
 32 33  1  0
 33 34  1  0
 24 35  2  0
 17  3  2  0
 35 19  1  0
 14  6  1  0
 34 29  1  0
  1 36  1  0
  1 37  1  0
  1 38  1  0
  4 39  1  0
  7 40  1  0
  7 41  1  0
  8 42  1  0
  8 43  1  0
 11 44  1  0
 11 45  1  0
 11 46  1  0
 13 47  1  0
 13 48  1  0
 14 49  1  0
 14 50  1  0
 15 51  1  0
 16 52  1  0
 18 53  1  0
 21 54  1  0
 23 55  1  0
 23 56  1  0
 23 57  1  0
 28 58  1  0
 29 59  1  0
 30 60  1  0
 30 61  1  0
 31 62  1  0
 31 63  1  0
 32 64  1  0
 32 65  1  0
 33 66  1  0
 33 67  1  0
 34 68  1  0
 34 69  1  0
M  END
>  <meeko>  (1) 
{"is_sidechain": false}

>  <smiles>  (1) 
COc1cc(N2CCN(C(C)=O)CC2)ccc1Nc1ncc(C)c(C(F)(F)NC2CCCCC2)n1

>  <vina_score>  (1) 
-8.465

>  <job_id>  (1) 
58679eb572603a84

$$$$

     RDKit          3D

 54 56  0  0  0  0  0  0  0  0999 V2000
   66.7950   83.8700   30.2520 C   0  0  0  0  0  0  0  0  0  0  0  0
   65.6290   82.9920   30.3840 N   0  0  0  0  0  0  0  0  0  0  0  0
   66.0380   81.7340   31.0190 C   0  0  0  0  0  0  0  0  0  0  0  0
   64.5540   83.6200   31.1740 C   0  0  0  0  0  0  0  0  0  0  0  0
   63.1610   83.1600   30.7230 C   0  0  0  0  0  0  0  0  0  0  0  0
   62.3280   82.5640   31.8530 C   0  0  0  0  0  0  0  0  0  0  0  0
   60.6300   83.1050   31.8350 S   0  0  0  0  0  0  0  0  0  0  0  0
   60.1160   83.0740   33.1900 O   0  0  0  0  0  0  0  0  0  0  0  0
   60.5420   84.3120   31.0330 O   0  0  0  0  0  0  0  0  0  0  0  0
   59.8090   81.8090   30.9380 C   0  0  0  0  0  0  0  0  0  0  0  0
   59.9060   81.7500   29.5490 C   0  0  0  0  0  0  0  0  0  0  0  0
   59.2490   80.7260   28.8600 C   0  0  0  0  0  0  0  0  0  0  0  0
   58.4890   79.7540   29.5340 C   0  0  0  0  0  0  0  0  0  0  0  0
   57.8370   78.7740   28.7790 N   0  0  0  0  0  0  0  0  0  0  0  0
   56.5380   78.2760   28.7590 C   0  0  0  0  0  0  0  0  0  0  0  0
   56.3860   77.0720   29.3310 N   0  0  0  0  0  0  0  0  0  0  0  0
   55.1520   76.5450   29.3210 C   0  0  0  0  0  0  0  0  0  0  0  0
   54.0660   77.1760   28.7700 C   0  0  0  0  0  0  0  0  0  0  0  0
   54.3000   78.4110   28.2020 C   0  0  0  0  0  0  0  0  0  0  0  0
   53.2010   79.0820   27.6100 N   0  0  0  0  0  0  0  0  0  0  0  0
   53.0830   79.5640   26.2870 C   0  0  0  0  0  0  0  0  0  0  0  0
   53.3670   78.6990   25.2170 C   0  0  0  0  0  0  0  0  0  0  0  0
   53.3100   79.1480   23.8950 C   0  0  0  0  0  0  0  0  0  0  0  0
   52.9900   80.4730   23.6360 C   0  0  0  0  0  0  0  0  0  0  0  0
   52.9380   80.9040   22.3690 F   0  0  0  0  0  0  0  0  0  0  0  0
   52.7400   81.3580   24.6730 C   0  0  0  0  0  0  0  0  0  0  0  0
   52.8000   80.9060   25.9940 C   0  0  0  0  0  0  0  0  0  0  0  0
   55.5280   78.9530   28.1960 N   0  0  0  0  0  0  0  0  0  0  0  0
   58.3970   79.8510   30.9290 C   0  0  0  0  0  0  0  0  0  0  0  0
   59.0470   80.8720   31.6330 C   0  0  0  0  0  0  0  0  0  0  0  0
   67.1613   84.1459   31.2519 H   0  0  0  0  0  0  0  0  0  0  0  0
   67.5897   83.3441   29.7025 H   0  0  0  0  0  0  0  0  0  0  0  0
   66.5091   84.7791   29.7025 H   0  0  0  0  0  0  0  0  0  0  0  0
   66.0014   81.8465   32.1126 H   0  0  0  0  0  0  0  0  0  0  0  0
   65.3555   80.9285   30.7102 H   0  0  0  0  0  0  0  0  0  0  0  0
   67.0637   81.4839   30.7102 H   0  0  0  0  0  0  0  0  0  0  0  0
   64.6899   83.3535   32.2325 H   0  0  0  0  0  0  0  0  0  0  0  0
   64.6158   84.7081   31.0248 H   0  0  0  0  0  0  0  0  0  0  0  0
   62.6229   84.0270   30.3122 H   0  0  0  0  0  0  0  0  0  0  0  0
   63.3059   82.3689   29.9725 H   0  0  0  0  0  0  0  0  0  0  0  0
   62.3466   81.4681   31.7604 H   0  0  0  0  0  0  0  0  0  0  0  0
   62.7699   82.9065   32.8003 H   0  0  0  0  0  0  0  0  0  0  0  0
   60.4933   82.5012   29.0005 H   0  0  0  0  0  0  0  0  0  0  0  0
   59.3287   80.6797   27.7639 H   0  0  0  0  0  0  0  0  0  0  0  0
   58.3920   78.2600   28.1110 H   0  0  0  0  0  0  0  0  0  0  0  0
   55.0037   75.5557   29.7784 H   0  0  0  0  0  0  0  0  0  0  0  0
   53.0640   76.7223   28.7805 H   0  0  0  0  0  0  0  0  0  0  0  0
   52.7870   79.7180   28.2840 H   0  0  0  0  0  0  0  0  0  0  0  0
   53.6382   77.6530   25.4229 H   0  0  0  0  0  0  0  0  0  0  0  0
   53.5174   78.4559   23.0655 H   0  0  0  0  0  0  0  0  0  0  0  0
   52.4961   82.4088   24.4577 H   0  0  0  0  0  0  0  0  0  0  0  0
   52.6225   81.6140   26.8170 H   0  0  0  0  0  0  0  0  0  0  0  0
   57.8018   79.1097   31.4824 H   0  0  0  0  0  0  0  0  0  0  0  0
   58.9567   80.9340   32.7275 H   0  0  0  0  0  0  0  0  0  0  0  0
  1  2  1  0
  2  3  1  0
  2  4  1  0
  4  5  1  0
  5  6  1  0
  6  7  1  0
  7  8  2  0
  7  9  2  0
  7 10  1  0
 10 11  1  0
 11 12  2  0
 12 13  1  0
 13 14  1  0
 14 15  1  0
 15 16  2  0
 16 17  1  0
 17 18  2  0
 18 19  1  0
 19 20  1  0
 20 21  1  0
 21 22  1  0
 22 23  2  0
 23 24  1  0
 24 25  1  0
 24 26  2  0
 26 27  1  0
 19 28  2  0
 13 29  2  0
 29 30  1  0
 30 10  2  0
 28 15  1  0
 27 21  2  0
  1 31  1  0
  1 32  1  0
  1 33  1  0
  3 34  1  0
  3 35  1  0
  3 36  1  0
  4 37  1  0
  4 38  1  0
  5 39  1  0
  5 40  1  0
  6 41  1  0
  6 42  1  0
 11 43  1  0
 12 44  1  0
 14 45  1  0
 17 46  1  0
 18 47  1  0
 20 48  1  0
 22 49  1  0
 23 50  1  0
 26 51  1  0
 27 52  1  0
 29 53  1  0
 30 54  1  0
M  END
>  <meeko>  (1) 
{"is_sidechain": false}

>  <smiles>  (1) 
CN(C)CCCS(=O)(=O)c1ccc(Nc2nccc(Nc3ccc(F)cc3)n2)cc1

>  <vina_score>  (1) 
-8.139

>  <job_id>  (1) 
5a312b93595f9a67

$$$$

     RDKit          3D

 36 39  0  0  0  0  0  0  0  0999 V2000
   62.9820   82.0970   32.0200 O   0  0  0  0  0  0  0  0  0  0  0  0
   62.6930   82.6490   30.9650 C   0  0  0  0  0  0  0  0  0  0  0  0
   61.5120   82.4920   30.2700 N   0  0  0  0  0  0  0  0  0  0  0  0
   60.5150   81.6430   30.7160 C   0  0  0  0  0  0  0  0  0  0  0  0
   60.3440   81.2830   32.0350 N   0  0  0  0  0  0  0  0  0  0  0  0
   59.3100   80.4470   32.2600 N   0  0  0  0  0  0  0  0  0  0  0  0
   58.7950   80.2530   31.0450 C   0  0  0  0  0  0  0  0  0  0  0  0
   57.7250   79.4820   30.7330 N   0  0  0  0  0  0  0  0  0  0  0  0
   57.4340   79.4820   29.3940 C   0  0  0  0  0  0  0  0  0  0  0  0
   56.2660   78.6430   29.0340 C   0  0  0  0  0  0  0  0  0  0  0  0
   55.9750   77.4400   29.7080 C   0  0  0  0  0  0  0  0  0  0  0  0
   54.8700   76.6570   29.3570 C   0  0  0  0  0  0  0  0  0  0  0  0
   54.0360   77.0680   28.3270 C   0  0  0  0  0  0  0  0  0  0  0  0
   52.9700   76.2690   28.0210 O   0  0  0  0  0  0  0  0  0  0  0  0
   54.2920   78.2590   27.6500 C   0  0  0  0  0  0  0  0  0  0  0  0
   53.2540   78.7740   26.3720 Cl  0  0  0  0  0  0  0  0  0  0  0  0
   55.3940   79.0400   28.0010 C   0  0  0  0  0  0  0  0  0  0  0  0
   58.1470   80.2170   28.3950 C   0  0  0  0  0  0  0  0  0  0  0  0
   59.2580   81.0230   28.6870 C   0  0  0  0  0  0  0  0  0  0  0  0
   59.5140   80.9820   30.0490 C   0  0  0  0  0  0  0  0  0  0  0  0
   63.6360   83.6070   30.3350 C   0  0  0  0  0  0  0  0  0  0  0  0
   64.8190   84.1620   31.0930 C   0  0  0  0  0  0  0  0  0  0  0  0
   63.6490   85.0480   30.7890 C   0  0  0  0  0  0  0  0  0  0  0  0
   61.3700   83.0090   29.4120 H   0  0  0  0  0  0  0  0  0  0  0  0
   60.9150   81.5920   32.8190 H   0  0  0  0  0  0  0  0  0  0  0  0
   56.6305   77.1097   30.5273 H   0  0  0  0  0  0  0  0  0  0  0  0
   54.6633   75.7200   29.8950 H   0  0  0  0  0  0  0  0  0  0  0  0
   52.5880   76.6090   27.1900 H   0  0  0  0  0  0  0  0  0  0  0  0
   55.5848   79.9802   27.4628 H   0  0  0  0  0  0  0  0  0  0  0  0
   57.8090   80.1472   27.3505 H   0  0  0  0  0  0  0  0  0  0  0  0
   59.8364   81.5984   27.9492 H   0  0  0  0  0  0  0  0  0  0  0  0
   63.5138   83.0795   29.3775 H   0  0  0  0  0  0  0  0  0  0  0  0
   65.0093   83.8390   32.1271 H   0  0  0  0  0  0  0  0  0  0  0  0
   65.9022   84.2164   30.9096 H   0  0  0  0  0  0  0  0  0  0  0  0
   62.9817   85.3743   31.6003 H   0  0  0  0  0  0  0  0  0  0  0  0
   63.5202   86.0201   30.2906 H   0  0  0  0  0  0  0  0  0  0  0  0
  1  2  2  0
  2  3  1  0
  3  4  1  0
  4  5  1  0
  5  6  1  0
  6  7  2  0
  7  8  1  0
  8  9  2  0
  9 10  1  0
 10 11  1  0
 11 12  2  0
 12 13  1  0
 13 14  1  0
 13 15  2  0
 15 16  1  0
 15 17  1  0
  9 18  1  0
 18 19  2  0
 19 20  1  0
  2 21  1  0
 21 22  1  0
 22 23  1  0
 20  4  2  0
 23 21  1  0
 20  7  1  0
 17 10  2  0
  3 24  1  0
  5 25  1  0
 11 26  1  0
 12 27  1  0
 14 28  1  0
 17 29  1  0
 18 30  1  0
 19 31  1  0
 21 32  1  0
 22 33  1  0
 22 34  1  0
 23 35  1  0
 23 36  1  0
M  END
>  <meeko>  (1) 
{"is_sidechain": false}

>  <smiles>  (1) 
O=C(Nc1[nH]nc2nc(-c3ccc(O)c(Cl)c3)ccc12)C1CC1

>  <vina_score>  (1) 
-7.983

>  <job_id>  (1) 
5b0ad42b6b541bab

$$$$

     RDKit          3D

 38 40  0  0  0  0  0  0  0  0999 V2000
   61.6100   81.7420   30.2710 N   0  0  0  0  0  0  0  0  0  0  0  0
   60.2900   82.0960   30.3340 C   0  0  0  0  0  0  0  0  0  0  0  0
   59.9640   83.2390   30.6310 O   0  0  0  0  0  0  0  0  0  0  0  0
   59.2830   81.0600   29.9840 C   0  0  0  0  0  0  0  0  0  0  0  0
   58.5590   80.4590   31.0160 C   0  0  0  0  0  0  0  0  0  0  0  0
   57.5990   79.4820   30.7270 C   0  0  0  0  0  0  0  0  0  0  0  0
   57.3370   79.0810   29.4070 C   0  0  0  0  0  0  0  0  0  0  0  0
   56.3820   78.0830   29.1910 N   0  0  0  0  0  0  0  0  0  0  0  0
   55.2180   78.0070   28.4300 C   0  0  0  0  0  0  0  0  0  0  0  0
   54.4800   76.9070   28.6380 N   0  0  0  0  0  0  0  0  0  0  0  0
   53.3550   76.7770   27.9300 C   0  0  0  0  0  0  0  0  0  0  0  0
   52.5840   75.6400   28.1790 N   0  0  0  0  0  0  0  0  0  0  0  0
   52.9280   77.7190   27.0270 C   0  0  0  0  0  0  0  0  0  0  0  0
   53.7400   78.8200   26.8560 C   0  0  0  0  0  0  0  0  0  0  0  0
   53.4280   79.9010   25.9120 C   0  0  0  0  0  0  0  0  0  0  0  0
   53.2230   81.2200   26.3410 C   0  0  0  0  0  0  0  0  0  0  0  0
   53.3090   81.5290   27.6450 F   0  0  0  0  0  0  0  0  0  0  0  0
   52.9150   82.2540   25.4520 C   0  0  0  0  0  0  0  0  0  0  0  0
   52.8050   81.9880   24.0910 C   0  0  0  0  0  0  0  0  0  0  0  0
   53.0040   80.6900   23.6320 C   0  0  0  0  0  0  0  0  0  0  0  0
   53.3100   79.6670   24.5350 C   0  0  0  0  0  0  0  0  0  0  0  0
   53.5180   78.4410   24.0290 F   0  0  0  0  0  0  0  0  0  0  0  0
   54.8870   78.9590   27.5510 N   0  0  0  0  0  0  0  0  0  0  0  0
   58.0910   79.6740   28.3890 C   0  0  0  0  0  0  0  0  0  0  0  0
   59.0540   80.6540   28.6670 C   0  0  0  0  0  0  0  0  0  0  0  0
   62.2720   82.5000   30.3830 H   0  0  0  0  0  0  0  0  0  0  0  0
   61.9200   80.9270   29.7630 H   0  0  0  0  0  0  0  0  0  0  0  0
   58.7437   80.7543   32.0594 H   0  0  0  0  0  0  0  0  0  0  0  0
   57.0378   79.0184   31.5517 H   0  0  0  0  0  0  0  0  0  0  0  0
   56.4420   77.2610   29.7750 H   0  0  0  0  0  0  0  0  0  0  0  0
   52.4070   75.5110   29.1690 H   0  0  0  0  0  0  0  0  0  0  0  0
   51.7200   75.7290   27.6500 H   0  0  0  0  0  0  0  0  0  0  0  0
   51.9873   77.6014   26.4692 H   0  0  0  0  0  0  0  0  0  0  0  0
   52.7599   83.2760   25.8280 H   0  0  0  0  0  0  0  0  0  0  0  0
   52.5631   82.7960   23.3848 H   0  0  0  0  0  0  0  0  0  0  0  0
   52.9206   80.4681   22.5578 H   0  0  0  0  0  0  0  0  0  0  0  0
   57.9245   79.3643   27.3467 H   0  0  0  0  0  0  0  0  0  0  0  0
   59.6309   81.1046   27.8459 H   0  0  0  0  0  0  0  0  0  0  0  0
  1  2  1  0
  2  3  2  0
  2  4  1  0
  4  5  1  0
  5  6  2  0
  6  7  1  0
  7  8  1  0
  8  9  1  0
  9 10  1  0
 10 11  2  0
 11 12  1  0
 11 13  1  0
 13 14  2  0
 14 15  1  0
 15 16  2  0
 16 17  1  0
 16 18  1  0
 18 19  2  0
 19 20  1  0
 20 21  2  0
 21 22  1  0
 14 23  1  0
  7 24  2  0
 24 25  1  0
 25  4  2  0
 23  9  2  0
 21 15  1  0
  1 26  1  0
  1 27  1  0
  5 28  1  0
  6 29  1  0
  8 30  1  0
 12 31  1  0
 12 32  1  0
 13 33  1  0
 18 34  1  0
 19 35  1  0
 20 36  1  0
 24 37  1  0
 25 38  1  0
M  END
>  <meeko>  (1) 
{"is_sidechain": false}

>  <smiles>  (1) 
NC(=O)c1ccc(Nc2nc(N)cc(-c3c(F)cccc3F)n2)cc1

>  <vina_score>  (1) 
-9.106

>  <job_id>  (1) 
5c3562d6650487d9

$$$$

     RDKit          3D

 49 51  0  0  0  0  0  0  0  0999 V2000
   55.7230   79.0110   27.9620 C   0  0  0  0  0  0  0  0  0  0  0  0
   56.6010   78.2310   28.9360 C   0  0  0  0  0  0  0  0  0  0  0  0
   55.8380   77.0450   29.5200 C   0  0  0  0  0  0  0  0  0  0  0  0
   57.0720   79.1070   30.0010 N   0  0  0  0  0  0  0  0  0  0  0  0
   58.2480   79.8190   29.8860 C   0  0  0  0  0  0  0  0  0  0  0  0
   58.9350   79.8360   28.8720 O   0  0  0  0  0  0  0  0  0  0  0  0
   58.6500   80.6230   31.0740 C   0  0  0  0  0  0  0  0  0  0  0  0
   57.8100   80.7800   32.1790 C   0  0  0  0  0  0  0  0  0  0  0  0
   58.2350   81.5380   33.2700 C   0  0  0  0  0  0  0  0  0  0  0  0
   59.5000   82.1350   33.2590 C   0  0  0  0  0  0  0  0  0  0  0  0
   59.8940   82.8540   34.3570 O   0  0  0  0  0  0  0  0  0  0  0  0
   60.3740   81.9930   32.1640 C   0  0  0  0  0  0  0  0  0  0  0  0
   61.7200   82.6020   32.1090 C   0  0  0  0  0  0  0  0  0  0  0  0
   62.3430   82.9540   30.9320 C   0  0  0  0  0  0  0  0  0  0  0  0
   63.5990   83.4930   31.0480 C   0  0  0  0  0  0  0  0  0  0  0  0
   64.3120   83.8390   29.8960 N   0  0  0  0  0  0  0  0  0  0  0  0
   64.3530   85.0830   29.5340 C   0  0  0  0  0  0  0  0  0  0  0  0
   65.1400   85.4850   28.3110 C   0  0  0  0  0  0  0  0  0  0  0  0
   65.1450   87.0030   28.4310 C   0  0  0  0  0  0  0  0  0  0  0  0
   63.8240   87.3340   29.1140 C   0  0  0  0  0  0  0  0  0  0  0  0
   63.6710   86.2620   30.1870 C   0  0  0  0  0  0  0  0  0  0  0  0
   64.2350   83.6540   32.2170 N   0  0  0  0  0  0  0  0  0  0  0  0
   63.5570   83.2930   33.3020 C   0  0  0  0  0  0  0  0  0  0  0  0
   64.1850   83.4340   34.5230 N   0  0  0  0  0  0  0  0  0  0  0  0
   62.3340   82.7610   33.3030 N   0  0  0  0  0  0  0  0  0  0  0  0
   59.9230   81.2110   31.0810 C   0  0  0  0  0  0  0  0  0  0  0  0
   55.0171   79.6381   28.5262 H   0  0  0  0  0  0  0  0  0  0  0  0
   56.3560   79.6501   27.3288 H   0  0  0  0  0  0  0  0  0  0  0  0
   55.1630   78.3071   27.3288 H   0  0  0  0  0  0  0  0  0  0  0  0
   57.4712   77.8430   28.3863 H   0  0  0  0  0  0  0  0  0  0  0  0
   55.8694   77.0938   30.6185 H   0  0  0  0  0  0  0  0  0  0  0  0
   54.7920   77.0792   29.1812 H   0  0  0  0  0  0  0  0  0  0  0  0
   56.3027   76.1073   29.1812 H   0  0  0  0  0  0  0  0  0  0  0  0
   56.5250   79.1670   30.8470 H   0  0  0  0  0  0  0  0  0  0  0  0
   56.8167   80.3074   32.1887 H   0  0  0  0  0  0  0  0  0  0  0  0
   57.5745   81.6665   34.1402 H   0  0  0  0  0  0  0  0  0  0  0  0
   59.5030   82.4630   35.1560 H   0  0  0  0  0  0  0  0  0  0  0  0
   61.8604   82.8109   29.9539 H   0  0  0  0  0  0  0  0  0  0  0  0
   66.1613   85.0773   28.3397 H   0  0  0  0  0  0  0  0  0  0  0  0
   64.7167   85.1136   27.3661 H   0  0  0  0  0  0  0  0  0  0  0  0
   65.9946   87.3423   29.0418 H   0  0  0  0  0  0  0  0  0  0  0  0
   65.2484   87.5002   27.4552 H   0  0  0  0  0  0  0  0  0  0  0  0
   63.8607   88.3356   29.5673 H   0  0  0  0  0  0  0  0  0  0  0  0
   62.9795   87.3445   28.4093 H   0  0  0  0  0  0  0  0  0  0  0  0
   64.1762   86.5523   31.1200 H   0  0  0  0  0  0  0  0  0  0  0  0
   62.6294   86.0698   30.4837 H   0  0  0  0  0  0  0  0  0  0  0  0
   64.7860   84.2460   34.4990 H   0  0  0  0  0  0  0  0  0  0  0  0
   63.4970   83.3900   35.2620 H   0  0  0  0  0  0  0  0  0  0  0  0
   60.5878   81.0580   30.2181 H   0  0  0  0  0  0  0  0  0  0  0  0
  1  2  1  0
  2  3  1  0
  2  4  1  0
  4  5  1  0
  5  6  2  0
  5  7  1  0
  7  8  1  0
  8  9  2  0
  9 10  1  0
 10 11  1  0
 10 12  2  0
 12 13  1  0
 13 14  1  0
 14 15  2  0
 15 16  1  0
 16 17  2  3
 17 18  1  0
 18 19  1  0
 19 20  1  0
 20 21  1  0
 15 22  1  0
 22 23  2  0
 23 24  1  0
 23 25  1  0
 12 26  1  0
 26  7  2  0
 25 13  2  0
 21 17  1  0
  1 27  1  0
  1 28  1  0
  1 29  1  0
  2 30  1  0
  3 31  1  0
  3 32  1  0
  3 33  1  0
  4 34  1  0
  8 35  1  0
  9 36  1  0
 11 37  1  0
 14 38  1  0
 18 39  1  0
 18 40  1  0
 19 41  1  0
 19 42  1  0
 20 43  1  0
 20 44  1  0
 21 45  1  0
 21 46  1  0
 24 47  1  0
 24 48  1  0
 26 49  1  0
M  END
>  <meeko>  (1) 
{"is_sidechain": false}

>  <smiles>  (1) 
CC(C)NC(=O)c1ccc(O)c(-c2cc(N=C3CCCC3)nc(N)n2)c1

>  <vina_score>  (1) 
-7.386

>  <job_id>  (1) 
5c9c052b6b74ef1f

$$$$

     RDKit          3D

 49 52  0  0  0  0  0  0  0  0999 V2000
   60.1640   86.3980   31.4000 O   0  0  0  0  0  0  0  0  0  0  0  0
   60.5260   85.2330   31.5320 C   0  0  0  0  0  0  0  0  0  0  0  0
   59.7270   84.1180   31.0110 C   0  0  0  0  0  0  0  0  0  0  0  0
   60.1810   82.8720   31.1910 C   0  0  0  0  0  0  0  0  0  0  0  0
   59.4190   81.7070   30.7160 C   0  0  0  0  0  0  0  0  0  0  0  0
   59.5560   81.3390   29.3650 C   0  0  0  0  0  0  0  0  0  0  0  0
   58.8620   80.2410   28.8490 C   0  0  0  0  0  0  0  0  0  0  0  0
   58.0260   79.5100   29.6820 C   0  0  0  0  0  0  0  0  0  0  0  0
   57.3300   78.4320   29.2220 O   0  0  0  0  0  0  0  0  0  0  0  0
   57.8680   79.8570   31.0200 C   0  0  0  0  0  0  0  0  0  0  0  0
   58.5600   80.9550   31.5370 C   0  0  0  0  0  0  0  0  0  0  0  0
   58.3010   81.3540   33.2010 Cl  0  0  0  0  0  0  0  0  0  0  0  0
   61.3470   82.5440   31.8540 O   0  0  0  0  0  0  0  0  0  0  0  0
   62.1310   83.5540   32.3650 C   0  0  0  0  0  0  0  0  0  0  0  0
   63.3140   83.1870   33.0370 C   0  0  0  0  0  0  0  0  0  0  0  0
   63.7050   81.7310   33.1950 C   0  0  0  0  0  0  0  0  0  0  0  0
   63.1140   80.9600   34.3990 C   0  0  0  0  0  0  0  0  0  0  0  0
   61.9760   79.9940   34.0200 C   0  0  0  0  0  0  0  0  0  0  0  0
   61.1690   79.4900   35.2220 C   0  0  0  0  0  0  0  0  0  0  0  0
   61.9350   79.6030   36.5310 C   0  0  0  0  0  0  0  0  0  0  0  0
   62.3490   81.0460   36.8200 C   0  0  0  0  0  0  0  0  0  0  0  0
   62.6830   81.8580   35.5640 C   0  0  0  0  0  0  0  0  0  0  0  0
   64.1300   84.2150   33.5360 C   0  0  0  0  0  0  0  0  0  0  0  0
   65.3030   83.8880   34.1570 O   0  0  0  0  0  0  0  0  0  0  0  0
   63.7800   85.5590   33.4010 C   0  0  0  0  0  0  0  0  0  0  0  0
   62.6000   85.8980   32.7490 C   0  0  0  0  0  0  0  0  0  0  0  0
   62.3130   87.2330   32.6540 O   0  0  0  0  0  0  0  0  0  0  0  0
   61.7770   84.8990   32.2280 C   0  0  0  0  0  0  0  0  0  0  0  0
   58.7783   84.3017   30.4855 H   0  0  0  0  0  0  0  0  0  0  0  0
   60.2171   81.9223   28.7071 H   0  0  0  0  0  0  0  0  0  0  0  0
   58.9772   79.9586   27.7921 H   0  0  0  0  0  0  0  0  0  0  0  0
   56.6560   78.1860   29.8760 H   0  0  0  0  0  0  0  0  0  0  0  0
   57.2011   79.2694   31.6680 H   0  0  0  0  0  0  0  0  0  0  0  0
   63.3924   81.2047   32.2810 H   0  0  0  0  0  0  0  0  0  0  0  0
   64.7893   81.7501   33.3790 H   0  0  0  0  0  0  0  0  0  0  0  0
   63.9615   80.3530   34.7500 H   0  0  0  0  0  0  0  0  0  0  0  0
   61.2907   80.5161   33.3360 H   0  0  0  0  0  0  0  0  0  0  0  0
   62.4435   79.1136   33.5549 H   0  0  0  0  0  0  0  0  0  0  0  0
   60.2469   80.0845   35.3012 H   0  0  0  0  0  0  0  0  0  0  0  0
   60.9524   78.4247   35.0542 H   0  0  0  0  0  0  0  0  0  0  0  0
   61.2951   79.2445   37.3508 H   0  0  0  0  0  0  0  0  0  0  0  0
   62.8473   78.9940   36.4486 H   0  0  0  0  0  0  0  0  0  0  0  0
   61.5218   81.5453   37.3457 H   0  0  0  0  0  0  0  0  0  0  0  0
   63.2666   81.0006   37.4250 H   0  0  0  0  0  0  0  0  0  0  0  0
   61.7922   82.4284   35.2623 H   0  0  0  0  0  0  0  0  0  0  0  0
   63.5211   82.5284   35.8051 H   0  0  0  0  0  0  0  0  0  0  0  0
   65.8320   84.6930   34.2860 H   0  0  0  0  0  0  0  0  0  0  0  0
   64.4334   86.3449   33.8077 H   0  0  0  0  0  0  0  0  0  0  0  0
   61.6190   87.3490   31.9650 H   0  0  0  0  0  0  0  0  0  0  0  0
  1  2  2  0
  2  3  1  0
  3  4  2  0
  4  5  1  0
  5  6  1  0
  6  7  2  0
  7  8  1  0
  8  9  1  0
  8 10  2  0
 10 11  1  0
 11 12  1  0
  4 13  1  0
 13 14  1  0
 14 15  2  0
 15 16  1  0
 16 17  1  0
 17 18  1  0
 18 19  1  0
 19 20  1  0
 20 21  1  0
 21 22  1  0
 15 23  1  0
 23 24  1  0
 23 25  2  0
 25 26  1  0
 26 27  1  0
 26 28  2  0
 28  2  1  0
 11  5  2  0
 28 14  1  0
 22 17  1  0
  3 29  1  0
  6 30  1  0
  7 31  1  0
  9 32  1  0
 10 33  1  0
 16 34  1  0
 16 35  1  0
 17 36  1  0
 18 37  1  0
 18 38  1  0
 19 39  1  0
 19 40  1  0
 20 41  1  0
 20 42  1  0
 21 43  1  0
 21 44  1  0
 22 45  1  0
 22 46  1  0
 24 47  1  0
 25 48  1  0
 27 49  1  0
M  END
>  <meeko>  (1) 
{"is_sidechain": false}

>  <smiles>  (1) 
O=c1cc(-c2ccc(O)cc2Cl)oc2c(CC3CCCCC3)c(O)cc(O)c12

>  <vina_score>  (1) 
-6.328

>  <job_id>  (1) 
5df3245d2935839f

$$$$

     RDKit          3D

 48 49  0  0  0  0  0  0  0  0999 V2000
   59.9390   82.6660   33.2180 C   0  0  0  0  0  0  0  0  0  0  0  0
   58.8510   82.0500   32.3250 C   0  0  0  0  0  0  0  0  0  0  0  0
   57.8180   81.3570   33.2200 C   0  0  0  0  0  0  0  0  0  0  0  0
   58.2240   83.1620   31.4790 C   0  0  0  0  0  0  0  0  0  0  0  0
   59.5550   81.0890   31.4950 O   0  0  0  0  0  0  0  0  0  0  0  0
   59.2710   80.9710   30.1700 C   0  0  0  0  0  0  0  0  0  0  0  0
   59.7100   81.6780   29.2760 O   0  0  0  0  0  0  0  0  0  0  0  0
   58.2800   79.8560   29.9690 C   0  0  0  0  0  0  0  0  0  0  0  0
   58.1930   79.4650   28.4980 C   0  0  0  0  0  0  0  0  0  0  0  0
   56.8040   79.6000   27.9740 C   0  0  0  0  0  0  0  0  0  0  0  0
   56.4970   80.6570   27.2080 N   0  0  0  0  0  0  0  0  0  0  0  0
   55.1820   80.4950   26.9200 N   0  0  0  0  0  0  0  0  0  0  0  0
   54.4720   81.4940   26.0990 C   0  0  0  0  0  0  0  0  0  0  0  0
   53.8640   80.8220   24.8530 C   0  0  0  0  0  0  0  0  0  0  0  0
   53.3110   82.1560   26.8800 C   0  0  0  0  0  0  0  0  0  0  0  0
   55.4400   82.6140   25.6730 C   0  0  0  0  0  0  0  0  0  0  0  0
   54.6610   79.3440   27.4650 C   0  0  0  0  0  0  0  0  0  0  0  0
   53.3980   78.8910   27.3580 N   0  0  0  0  0  0  0  0  0  0  0  0
   53.2290   77.7360   28.0190 C   0  0  0  0  0  0  0  0  0  0  0  0
   54.1460   77.0380   28.7150 N   0  0  0  0  0  0  0  0  0  0  0  0
   55.4000   77.5250   28.7990 C   0  0  0  0  0  0  0  0  0  0  0  0
   56.3100   76.7670   29.5200 N   0  0  0  0  0  0  0  0  0  0  0  0
   55.6960   78.7340   28.1540 C   0  0  0  0  0  0  0  0  0  0  0  0
   59.6741   82.5160   34.2750 H   0  0  0  0  0  0  0  0  0  0  0  0
   60.9034   82.1799   33.0091 H   0  0  0  0  0  0  0  0  0  0  0  0
   60.0184   83.7431   33.0091 H   0  0  0  0  0  0  0  0  0  0  0  0
   58.0738   81.5286   34.2760 H   0  0  0  0  0  0  0  0  0  0  0  0
   56.8190   81.7683   33.0132 H   0  0  0  0  0  0  0  0  0  0  0  0
   57.8197   80.2766   33.0132 H   0  0  0  0  0  0  0  0  0  0  0  0
   57.7925   83.9273   32.1409 H   0  0  0  0  0  0  0  0  0  0  0  0
   58.9969   83.6199   30.8442 H   0  0  0  0  0  0  0  0  0  0  0  0
   57.4322   82.7376   30.8442 H   0  0  0  0  0  0  0  0  0  0  0  0
   58.5975   78.9816   30.5560 H   0  0  0  0  0  0  0  0  0  0  0  0
   57.2896   80.2017   30.3002 H   0  0  0  0  0  0  0  0  0  0  0  0
   58.8591   80.1182   27.9153 H   0  0  0  0  0  0  0  0  0  0  0  0
   58.4944   78.4113   28.4044 H   0  0  0  0  0  0  0  0  0  0  0  0
   53.1566   80.0401   25.1665 H   0  0  0  0  0  0  0  0  0  0  0  0
   53.3346   81.5756   24.2515 H   0  0  0  0  0  0  0  0  0  0  0  0
   54.6667   80.3705   24.2515 H   0  0  0  0  0  0  0  0  0  0  0  0
   53.4905   82.0536   27.9604 H   0  0  0  0  0  0  0  0  0  0  0  0
   53.2536   83.2226   26.6173 H   0  0  0  0  0  0  0  0  0  0  0  0
   52.3638   81.6622   26.6173 H   0  0  0  0  0  0  0  0  0  0  0  0
   55.8580   83.0976   26.5682 H   0  0  0  0  0  0  0  0  0  0  0  0
   56.2562   82.1848   25.0733 H   0  0  0  0  0  0  0  0  0  0  0  0
   54.8971   83.3594   25.0733 H   0  0  0  0  0  0  0  0  0  0  0  0
   52.2168   77.3064   27.9886 H   0  0  0  0  0  0  0  0  0  0  0  0
   56.5950   75.9510   28.9890 H   0  0  0  0  0  0  0  0  0  0  0  0
   57.0470   77.2710   29.9890 H   0  0  0  0  0  0  0  0  0  0  0  0
  1  2  1  0
  2  3  1  0
  2  4  1  0
  2  5  1  0
  5  6  1  0
  6  7  2  0
  6  8  1  0
  8  9  1  0
  9 10  1  0
 10 11  2  0
 11 12  1  0
 12 13  1  0
 13 14  1  0
 13 15  1  0
 13 16  1  0
 12 17  1  0
 17 18  2  0
 18 19  1  0
 19 20  2  0
 20 21  1  0
 21 22  1  0
 21 23  2  0
 23 10  1  0
 23 17  1  0
  1 24  1  0
  1 25  1  0
  1 26  1  0
  3 27  1  0
  3 28  1  0
  3 29  1  0
  4 30  1  0
  4 31  1  0
  4 32  1  0
  8 33  1  0
  8 34  1  0
  9 35  1  0
  9 36  1  0
 14 37  1  0
 14 38  1  0
 14 39  1  0
 15 40  1  0
 15 41  1  0
 15 42  1  0
 16 43  1  0
 16 44  1  0
 16 45  1  0
 19 46  1  0
 22 47  1  0
 22 48  1  0
M  END
>  <meeko>  (1) 
{"is_sidechain": false}

>  <smiles>  (1) 
CC(C)(C)OC(=O)CCc1nn(C(C)(C)C)c2ncnc(N)c12

>  <vina_score>  (1) 
-7.176

>  <job_id>  (1) 
5e23bea04f546916

$$$$

     RDKit          3D

 39 42  0  0  0  0  0  0  0  0999 V2000
   51.0600   75.3570   25.3950 N   0  0  0  0  0  0  0  0  0  0  0  0
   52.1240   75.2440   26.3890 C   0  0  0  0  0  0  0  0  0  0  0  0
   51.8550   76.1500   27.5950 C   0  0  0  0  0  0  0  0  0  0  0  0
   53.1300   76.7670   28.1120 C   0  0  0  0  0  0  0  0  0  0  0  0
   53.8100   77.8300   27.6320 C   0  0  0  0  0  0  0  0  0  0  0  0
   53.3100   78.5980   26.4520 C   0  0  0  0  0  0  0  0  0  0  0  0
   53.9410   79.6910   25.9330 C   0  0  0  0  0  0  0  0  0  0  0  0
   53.3480   80.3060   24.7910 C   0  0  0  0  0  0  0  0  0  0  0  0
   52.9350   79.8310   23.5620 C   0  0  0  0  0  0  0  0  0  0  0  0
   52.4280   80.9250   22.8200 C   0  0  0  0  0  0  0  0  0  0  0  0
   52.5600   82.0470   23.6070 C   0  0  0  0  0  0  0  0  0  0  0  0
   53.1350   81.6670   24.7910 N   0  0  0  0  0  0  0  0  0  0  0  0
   55.1670   80.1140   26.5560 C   0  0  0  0  0  0  0  0  0  0  0  0
   56.0460   81.1460   26.3150 C   0  0  0  0  0  0  0  0  0  0  0  0
   56.0400   82.1050   25.3960 O   0  0  0  0  0  0  0  0  0  0  0  0
   57.0490   81.0420   27.2610 N   0  0  0  0  0  0  0  0  0  0  0  0
   56.8210   79.9760   28.1070 C   0  0  0  0  0  0  0  0  0  0  0  0
   57.5280   79.4770   29.2010 C   0  0  0  0  0  0  0  0  0  0  0  0
   56.9810   78.3520   29.8350 C   0  0  0  0  0  0  0  0  0  0  0  0
   55.7890   77.7610   29.3950 C   0  0  0  0  0  0  0  0  0  0  0  0
   55.3490   76.6900   30.0720 F   0  0  0  0  0  0  0  0  0  0  0  0
   55.0810   78.2630   28.2980 C   0  0  0  0  0  0  0  0  0  0  0  0
   55.6450   79.3900   27.6720 C   0  0  0  0  0  0  0  0  0  0  0  0
   50.1740   75.5480   25.8630 H   0  0  0  0  0  0  0  0  0  0  0  0
   51.2430   76.1610   24.7980 H   0  0  0  0  0  0  0  0  0  0  0  0
   52.1859   74.2004   26.7311 H   0  0  0  0  0  0  0  0  0  0  0  0
   53.0702   75.5565   25.9231 H   0  0  0  0  0  0  0  0  0  0  0  0
   51.1652   76.9522   27.2938 H   0  0  0  0  0  0  0  0  0  0  0  0
   51.4149   75.5390   28.3969 H   0  0  0  0  0  0  0  0  0  0  0  0
   53.5650   76.2859   29.0005 H   0  0  0  0  0  0  0  0  0  0  0  0
   52.3782   78.2626   25.9733 H   0  0  0  0  0  0  0  0  0  0  0  0
   52.9902   78.7870   23.2199 H   0  0  0  0  0  0  0  0  0  0  0  0
   52.0072   80.8859   21.8044 H   0  0  0  0  0  0  0  0  0  0  0  0
   52.2572   83.0685   23.3333 H   0  0  0  0  0  0  0  0  0  0  0  0
   53.3730   82.2900   25.5520 H   0  0  0  0  0  0  0  0  0  0  0  0
   55.6570   81.7790   24.5660 H   0  0  0  0  0  0  0  0  0  0  0  0
   57.8420   81.6610   27.3360 H   0  0  0  0  0  0  0  0  0  0  0  0
   58.4634   79.9405   29.5475 H   0  0  0  0  0  0  0  0  0  0  0  0
   57.5025   77.9212   30.7024 H   0  0  0  0  0  0  0  0  0  0  0  0
  1  2  1  0
  2  3  1  0
  3  4  1  0
  4  5  2  3
  5  6  1  0
  6  7  2  0
  7  8  1  0
  8  9  2  0
  9 10  1  0
 10 11  2  0
 11 12  1  0
  7 13  1  0
 13 14  2  0
 14 15  1  0
 14 16  1  0
 16 17  1  0
 17 18  2  0
 18 19  1  0
 19 20  2  0
 20 21  1  0
 20 22  1  0
 22 23  2  0
 22  5  1  0
 12  8  1  0
 23 13  1  0
 23 17  1  0
  1 24  1  0
  1 25  1  0
  2 26  1  0
  2 27  1  0
  3 28  1  0
  3 29  1  0
  4 30  1  0
  6 31  1  0
  9 32  1  0
 10 33  1  0
 11 34  1  0
 12 35  1  0
 15 36  1  0
 16 37  1  0
 18 38  1  0
 19 39  1  0
M  END
>  <meeko>  (1) 
{"is_sidechain": false}

>  <smiles>  (1) 
NCCC=c1cc(-c2ccc[nH]2)c2c(O)[nH]c3ccc(F)c1c32

>  <vina_score>  (1) 
-9.315

>  <job_id>  (1) 
62eb04f4e2981912

$$$$

     RDKit          3D

 42 43  0  0  0  0  0  0  0  0999 V2000
   60.5590   83.7290   34.5190 C   0  0  0  0  0  0  0  0  0  0  0  0
   60.2440   82.5460   33.6760 C   0  0  0  0  0  0  0  0  0  0  0  0
   60.4520   81.3110   34.0790 N   0  0  0  0  0  0  0  0  0  0  0  0
   60.0370   80.5140   33.0590 C   0  0  0  0  0  0  0  0  0  0  0  0
   59.5620   81.2450   31.9840 C   0  0  0  0  0  0  0  0  0  0  0  0
   59.0170   80.7320   30.7210 C   0  0  0  0  0  0  0  0  0  0  0  0
   58.0020   79.8460   30.8230 N   0  0  0  0  0  0  0  0  0  0  0  0
   57.5130   79.3290   29.6880 C   0  0  0  0  0  0  0  0  0  0  0  0
   56.4570   78.4330   29.6760 N   0  0  0  0  0  0  0  0  0  0  0  0
   55.4500   78.3640   28.7470 C   0  0  0  0  0  0  0  0  0  0  0  0
   55.3430   79.0650   27.7470 O   0  0  0  0  0  0  0  0  0  0  0  0
   54.4340   77.2650   29.0700 C   0  0  0  0  0  0  0  0  0  0  0  0
   53.3090   77.2320   28.0370 C   0  0  0  0  0  0  0  0  0  0  0  0
   55.1220   75.9030   29.1450 C   0  0  0  0  0  0  0  0  0  0  0  0
   57.9810   79.6110   28.4600 N   0  0  0  0  0  0  0  0  0  0  0  0
   58.9940   80.4970   28.3950 C   0  0  0  0  0  0  0  0  0  0  0  0
   59.5510   81.0910   29.4970 C   0  0  0  0  0  0  0  0  0  0  0  0
   60.5560   81.9650   29.3590 F   0  0  0  0  0  0  0  0  0  0  0  0
   59.7240   82.5710   32.3890 N   0  0  0  0  0  0  0  0  0  0  0  0
   59.4090   83.7640   31.5990 C   0  0  0  0  0  0  0  0  0  0  0  0
   60.5920   84.7160   31.3950 C   0  0  0  0  0  0  0  0  0  0  0  0
   58.1850   84.4970   32.1460 C   0  0  0  0  0  0  0  0  0  0  0  0
   60.4854   83.4524   35.5811 H   0  0  0  0  0  0  0  0  0  0  0  0
   61.5803   84.0739   34.2999 H   0  0  0  0  0  0  0  0  0  0  0  0
   59.8445   84.5361   34.2999 H   0  0  0  0  0  0  0  0  0  0  0  0
   60.0744   79.4149   33.0850 H   0  0  0  0  0  0  0  0  0  0  0  0
   56.5090   77.7610   30.4260 H   0  0  0  0  0  0  0  0  0  0  0  0
   53.9921   77.4937   30.0510 H   0  0  0  0  0  0  0  0  0  0  0  0
   52.3380   77.2035   28.5531 H   0  0  0  0  0  0  0  0  0  0  0  0
   53.3631   78.1321   27.4070 H   0  0  0  0  0  0  0  0  0  0  0  0
   53.4158   76.3366   27.4070 H   0  0  0  0  0  0  0  0  0  0  0  0
   55.2642   75.6216   30.1988 H   0  0  0  0  0  0  0  0  0  0  0  0
   54.4969   75.1484   28.6451 H   0  0  0  0  0  0  0  0  0  0  0  0
   56.1003   75.9583   28.6451 H   0  0  0  0  0  0  0  0  0  0  0  0
   59.3953   80.7574   27.4044 H   0  0  0  0  0  0  0  0  0  0  0  0
   59.1645   83.3871   30.5949 H   0  0  0  0  0  0  0  0  0  0  0  0
   60.9827   85.0304   32.3740 H   0  0  0  0  0  0  0  0  0  0  0  0
   61.3844   84.2008   30.8323 H   0  0  0  0  0  0  0  0  0  0  0  0
   60.2582   85.6003   30.8323 H   0  0  0  0  0  0  0  0  0  0  0  0
   58.2098   84.4821   33.2456 H   0  0  0  0  0  0  0  0  0  0  0  0
   58.1935   85.5388   31.7931 H   0  0  0  0  0  0  0  0  0  0  0  0
   57.2706   83.9977   31.7931 H   0  0  0  0  0  0  0  0  0  0  0  0
  1  2  1  0
  2  3  2  0
  3  4  1  0
  4  5  2  0
  5  6  1  0
  6  7  2  0
  7  8  1  0
  8  9  1  0
  9 10  1  0
 10 11  2  0
 10 12  1  0
 12 13  1  0
 12 14  1  0
  8 15  2  0
 15 16  1  0
 16 17  2  0
 17 18  1  0
  5 19  1  0
 19 20  1  0
 20 21  1  0
 20 22  1  0
 19  2  1  0
 17  6  1  0
  1 23  1  0
  1 24  1  0
  1 25  1  0
  4 26  1  0
  9 27  1  0
 12 28  1  0
 13 29  1  0
 13 30  1  0
 13 31  1  0
 14 32  1  0
 14 33  1  0
 14 34  1  0
 16 35  1  0
 20 36  1  0
 21 37  1  0
 21 38  1  0
 21 39  1  0
 22 40  1  0
 22 41  1  0
 22 42  1  0
M  END
>  <meeko>  (1) 
{"is_sidechain": false}

>  <smiles>  (1) 
Cc1ncc(-c2nc(NC(=O)C(C)C)ncc2F)n1C(C)C

>  <vina_score>  (1) 
-6.364

>  <job_id>  (1) 
633e6162d162ba7c

$$$$

     RDKit          3D

 57 61  0  0  0  0  0  0  0  0999 V2000
   62.8130   84.0000   34.4690 C   0  0  0  0  0  0  0  0  0  0  0  0
   61.4610   83.7080   34.9380 N   0  0  0  0  0  0  0  0  0  0  0  0
   60.4350   84.3610   34.0950 C   0  0  0  0  0  0  0  0  0  0  0  0
   60.2500   83.7530   32.6840 C   0  0  0  0  0  0  0  0  0  0  0  0
   60.0040   82.3000   32.7620 N   0  0  0  0  0  0  0  0  0  0  0  0
   59.6200   81.6230   31.5930 C   0  0  0  0  0  0  0  0  0  0  0  0
   60.1650   82.0050   30.3590 C   0  0  0  0  0  0  0  0  0  0  0  0
   59.8140   81.3580   29.1750 C   0  0  0  0  0  0  0  0  0  0  0  0
   58.9110   80.2960   29.1970 C   0  0  0  0  0  0  0  0  0  0  0  0
   58.3580   79.8560   30.3980 C   0  0  0  0  0  0  0  0  0  0  0  0
   57.4380   78.8030   30.4950 N   0  0  0  0  0  0  0  0  0  0  0  0
   56.3920   78.3530   29.6950 C   0  0  0  0  0  0  0  0  0  0  0  0
   55.8040   77.1620   29.8940 N   0  0  0  0  0  0  0  0  0  0  0  0
   54.7980   76.8050   29.0730 C   0  0  0  0  0  0  0  0  0  0  0  0
   54.3400   77.6030   28.0590 C   0  0  0  0  0  0  0  0  0  0  0  0
   55.0220   78.8010   27.9270 C   0  0  0  0  0  0  0  0  0  0  0  0
   56.0320   79.2000   28.7160 N   0  0  0  0  0  0  0  0  0  0  0  0
   54.5860   79.6980   26.8740 C   0  0  0  0  0  0  0  0  0  0  0  0
   53.4300   79.5040   26.1430 C   0  0  0  0  0  0  0  0  0  0  0  0
   53.3680   80.5830   25.2280 C   0  0  0  0  0  0  0  0  0  0  0  0
   52.3230   80.8610   24.2320 C   0  0  0  0  0  0  0  0  0  0  0  0
   52.7890   80.9840   22.9540 N   0  0  0  0  0  0  0  0  0  0  0  0
   51.1310   80.9820   24.4970 O   0  0  0  0  0  0  0  0  0  0  0  0
   54.4380   81.3960   25.3780 N   0  0  0  0  0  0  0  0  0  0  0  0
   55.1530   80.8370   26.3840 N   0  0  0  0  0  0  0  0  0  0  0  0
   56.3830   81.4630   26.8050 C   0  0  0  0  0  0  0  0  0  0  0  0
   52.5110   78.3620   26.4140 C   0  0  0  0  0  0  0  0  0  0  0  0
   53.2610   77.1850   27.0890 C   0  0  0  0  0  0  0  0  0  0  0  0
   58.7270   80.5350   31.5810 C   0  0  0  0  0  0  0  0  0  0  0  0
   61.0130   81.5800   33.5760 C   0  0  0  0  0  0  0  0  0  0  0  0
   61.1940   82.2520   34.9590 C   0  0  0  0  0  0  0  0  0  0  0  0
   63.4779   84.1436   35.3334 H   0  0  0  0  0  0  0  0  0  0  0  0
   63.1793   83.1603   33.8602 H   0  0  0  0  0  0  0  0  0  0  0  0
   62.8001   84.9161   33.8602 H   0  0  0  0  0  0  0  0  0  0  0  0
   59.4714   84.2959   34.6216 H   0  0  0  0  0  0  0  0  0  0  0  0
   60.7838   85.3922   33.9373 H   0  0  0  0  0  0  0  0  0  0  0  0
   59.3927   84.2371   32.1933 H   0  0  0  0  0  0  0  0  0  0  0  0
   61.1707   83.9219   32.1063 H   0  0  0  0  0  0  0  0  0  0  0  0
   60.8865   82.8346   30.3242 H   0  0  0  0  0  0  0  0  0  0  0  0
   60.2509   81.6865   28.2204 H   0  0  0  0  0  0  0  0  0  0  0  0
   58.6319   79.7998   28.2557 H   0  0  0  0  0  0  0  0  0  0  0  0
   57.5660   78.1600   31.2590 H   0  0  0  0  0  0  0  0  0  0  0  0
   54.3213   75.8253   29.2243 H   0  0  0  0  0  0  0  0  0  0  0  0
   52.1550   81.2110   22.2040 H   0  0  0  0  0  0  0  0  0  0  0  0
   53.7890   80.9090   22.7980 H   0  0  0  0  0  0  0  0  0  0  0  0
   56.4259   81.4848   27.9039 H   0  0  0  0  0  0  0  0  0  0  0  0
   57.2378   80.8903   26.4160 H   0  0  0  0  0  0  0  0  0  0  0  0
   56.4230   82.4911   26.4160 H   0  0  0  0  0  0  0  0  0  0  0  0
   51.7037   78.7016   27.0796 H   0  0  0  0  0  0  0  0  0  0  0  0
   52.1020   78.0097   25.4555 H   0  0  0  0  0  0  0  0  0  0  0  0
   52.5249   76.5769   27.6353 H   0  0  0  0  0  0  0  0  0  0  0  0
   53.7635   76.6310   26.2824 H   0  0  0  0  0  0  0  0  0  0  0  0
   58.2969   80.1981   32.5357 H   0  0  0  0  0  0  0  0  0  0  0  0
   60.6824   80.5410   33.7217 H   0  0  0  0  0  0  0  0  0  0  0  0
   61.9758   81.6078   33.0447 H   0  0  0  0  0  0  0  0  0  0  0  0
   60.2735   82.0860   35.5379 H   0  0  0  0  0  0  0  0  0  0  0  0
   62.0896   81.7904   35.4004 H   0  0  0  0  0  0  0  0  0  0  0  0
  1  2  1  0
  2  3  1  0
  3  4  1  0
  4  5  1  0
  5  6  1  0
  6  7  2  0
  7  8  1  0
  8  9  2  0
  9 10  1  0
 10 11  1  0
 11 12  1  0
 12 13  2  0
 13 14  1  0
 14 15  2  0
 15 16  1  0
 16 17  2  0
 16 18  1  0
 18 19  2  0
 19 20  1  0
 20 21  1  0
 21 22  1  0
 21 23  2  0
 20 24  2  0
 24 25  1  0
 25 26  1  0
 19 27  1  0
 27 28  1  0
 10 29  2  0
  5 30  1  0
 30 31  1  0
 31  2  1  0
 29  6  1  0
 17 12  1  0
 25 18  1  0
 28 15  1  0
  1 32  1  0
  1 33  1  0
  1 34  1  0
  3 35  1  0
  3 36  1  0
  4 37  1  0
  4 38  1  0
  7 39  1  0
  8 40  1  0
  9 41  1  0
 11 42  1  0
 14 43  1  0
 22 44  1  0
 22 45  1  0
 26 46  1  0
 26 47  1  0
 26 48  1  0
 27 49  1  0
 27 50  1  0
 28 51  1  0
 28 52  1  0
 29 53  1  0
 30 54  1  0
 30 55  1  0
 31 56  1  0
 31 57  1  0
M  END
>  <meeko>  (1) 
{"is_sidechain": false}

>  <smiles>  (1) 
CN1CCN(c2cccc(Nc3ncc4c(n3)-c3c(c(C(N)=O)nn3C)CC4)c2)CC1

>  <vina_score>  (1) 
-9.073

>  <job_id>  (1) 
657076bc7aca22f8

$$$$

     RDKit          3D

 57 61  0  0  0  0  0  0  0  0999 V2000
   60.5450   83.1310   34.1560 C   0  0  0  0  0  0  0  0  0  0  0  0
   60.5120   83.6790   32.8460 O   0  0  0  0  0  0  0  0  0  0  0  0
   59.2620   84.3130   32.5690 C   0  0  0  0  0  0  0  0  0  0  0  0
   58.5300   83.5780   31.4270 C   0  0  0  0  0  0  0  0  0  0  0  0
   59.1430   82.3110   30.9780 N   0  0  0  0  0  0  0  0  0  0  0  0
   58.4920   81.1260   31.5460 C   0  0  0  0  0  0  0  0  0  0  0  0
   58.8560   79.8440   30.7970 C   0  0  0  0  0  0  0  0  0  0  0  0
   58.4540   79.9110   29.3140 C   0  0  0  0  0  0  0  0  0  0  0  0
   57.2210   79.0990   29.0180 C   0  0  0  0  0  0  0  0  0  0  0  0
   56.1980   79.3300   28.1140 C   0  0  0  0  0  0  0  0  0  0  0  0
   55.2610   78.2590   28.2120 C   0  0  0  0  0  0  0  0  0  0  0  0
   54.0400   77.9040   27.5960 C   0  0  0  0  0  0  0  0  0  0  0  0
   53.5180   78.7750   26.5700 C   0  0  0  0  0  0  0  0  0  0  0  0
   52.7360   79.9470   26.6660 C   0  0  0  0  0  0  0  0  0  0  0  0
   52.4300   80.4590   25.4720 N   0  0  0  0  0  0  0  0  0  0  0  0
   52.9990   79.5990   24.6020 N   0  0  0  0  0  0  0  0  0  0  0  0
   52.9190   79.8460   23.1670 C   0  0  0  0  0  0  0  0  0  0  0  0
   52.5240   81.2370   22.7520 C   0  0  0  0  0  0  0  0  0  0  0  0
   52.5610   81.7330   21.3260 C   0  0  0  0  0  0  0  0  0  0  0  0
   51.2380   81.5310   22.0190 C   0  0  0  0  0  0  0  0  0  0  0  0
   53.6750   78.5800   25.2160 C   0  0  0  0  0  0  0  0  0  0  0  0
   53.4190   76.7210   28.0190 C   0  0  0  0  0  0  0  0  0  0  0  0
   51.9420   76.1380   27.3390 Cl  0  0  0  0  0  0  0  0  0  0  0  0
   54.0310   75.9670   29.0160 C   0  0  0  0  0  0  0  0  0  0  0  0
   55.1970   76.2630   29.6410 N   0  0  0  0  0  0  0  0  0  0  0  0
   55.7500   77.4050   29.1950 C   0  0  0  0  0  0  0  0  0  0  0  0
   56.9260   77.9190   29.6620 N   0  0  0  0  0  0  0  0  0  0  0  0
   58.3060   81.3570   28.8200 C   0  0  0  0  0  0  0  0  0  0  0  0
   59.3100   82.2690   29.5190 C   0  0  0  0  0  0  0  0  0  0  0  0
   60.4960   83.9443   34.8950 H   0  0  0  0  0  0  0  0  0  0  0  0
   59.6857   82.4582   34.2937 H   0  0  0  0  0  0  0  0  0  0  0  0
   61.4788   82.5661   34.2937 H   0  0  0  0  0  0  0  0  0  0  0  0
   58.6364   84.2923   33.4735 H   0  0  0  0  0  0  0  0  0  0  0  0
   59.4484   85.3531   32.2633 H   0  0  0  0  0  0  0  0  0  0  0  0
   57.5086   83.3555   31.7695 H   0  0  0  0  0  0  0  0  0  0  0  0
   58.5753   84.2542   30.5605 H   0  0  0  0  0  0  0  0  0  0  0  0
   58.8028   81.0217   32.5960 H   0  0  0  0  0  0  0  0  0  0  0  0
   57.4046   81.2673   31.4589 H   0  0  0  0  0  0  0  0  0  0  0  0
   59.9431   79.6897   30.8639 H   0  0  0  0  0  0  0  0  0  0  0  0
   58.3074   79.0112   31.2611 H   0  0  0  0  0  0  0  0  0  0  0  0
   59.2816   79.4565   28.7496 H   0  0  0  0  0  0  0  0  0  0  0  0
   56.1210   80.1926   27.4357 H   0  0  0  0  0  0  0  0  0  0  0  0
   52.4143   80.3895   27.6203 H   0  0  0  0  0  0  0  0  0  0  0  0
   53.9084   79.6354   22.7348 H   0  0  0  0  0  0  0  0  0  0  0  0
   52.1150   79.1907   22.8006 H   0  0  0  0  0  0  0  0  0  0  0  0
   52.9857   81.5650   23.6950 H   0  0  0  0  0  0  0  0  0  0  0  0
   52.9173   82.7503   21.1067 H   0  0  0  0  0  0  0  0  0  0  0  0
   53.0110   81.3733   20.3889 H   0  0  0  0  0  0  0  0  0  0  0  0
   50.6287   82.4010   22.3050 H   0  0  0  0  0  0  0  0  0  0  0  0
   50.3228   80.9628   21.7965 H   0  0  0  0  0  0  0  0  0  0  0  0
   54.2322   77.7679   24.7261 H   0  0  0  0  0  0  0  0  0  0  0  0
   53.5202   75.0435   29.3262 H   0  0  0  0  0  0  0  0  0  0  0  0
   57.4720   77.4780   30.3880 H   0  0  0  0  0  0  0  0  0  0  0  0
   58.4837   81.3883   27.7349 H   0  0  0  0  0  0  0  0  0  0  0  0
   57.2889   81.7077   29.0494 H   0  0  0  0  0  0  0  0  0  0  0  0
   60.3244   81.9077   29.2944 H   0  0  0  0  0  0  0  0  0  0  0  0
   59.1390   83.2886   29.1432 H   0  0  0  0  0  0  0  0  0  0  0  0
  1  2  1  0
  2  3  1  0
  3  4  1  0
  4  5  1  0
  5  6  1  0
  6  7  1  0
  7  8  1  0
  8  9  1  0
  9 10  2  0
 10 11  1  0
 11 12  1  0
 12 13  1  0
 13 14  1  0
 14 15  2  0
 15 16  1  0
 16 17  1  0
 17 18  1  0
 18 19  1  0
 19 20  1  0
 16 21  1  0
 12 22  2  0
 22 23  1  0
 22 24  1  0
 24 25  2  0
 25 26  1  0
 26 27  1  0
  8 28  1  0
 28 29  1  0
 29  5  1  0
 27  9  1  0
 26 11  2  0
 21 13  2  0
 20 18  1  0
  1 30  1  0
  1 31  1  0
  1 32  1  0
  3 33  1  0
  3 34  1  0
  4 35  1  0
  4 36  1  0
  6 37  1  0
  6 38  1  0
  7 39  1  0
  7 40  1  0
  8 41  1  0
 10 42  1  0
 14 43  1  0
 17 44  1  0
 17 45  1  0
 18 46  1  0
 19 47  1  0
 19 48  1  0
 20 49  1  0
 20 50  1  0
 21 51  1  0
 24 52  1  0
 27 53  1  0
 28 54  1  0
 28 55  1  0
 29 56  1  0
 29 57  1  0
M  END
>  <meeko>  (1) 
{"is_sidechain": false}

>  <smiles>  (1) 
COCCN1CCC(c2cc3c(-c4cnn(CC5CC5)c4)c(Cl)cnc3[nH]2)CC1

>  <vina_score>  (1) 
-8.549

>  <job_id>  (1) 
69916b4eedf8fe8b

$$$$

     RDKit          3D

 56 58  0  0  0  0  0  0  0  0999 V2000
   61.8650   82.2180   38.9030 C   0  0  0  0  0  0  0  0  0  0  0  0
   62.4240   81.7220   37.5740 C   0  0  0  0  0  0  0  0  0  0  0  0
   63.7880   81.3600   37.7700 O   0  0  0  0  0  0  0  0  0  0  0  0
   62.2400   82.7680   36.4460 C   0  0  0  0  0  0  0  0  0  0  0  0
   62.6740   83.9170   36.5660 O   0  0  0  0  0  0  0  0  0  0  0  0
   61.5670   82.3620   35.3020 N   0  0  0  0  0  0  0  0  0  0  0  0
   61.0060   81.0220   35.0930 C   0  0  0  0  0  0  0  0  0  0  0  0
   59.9010   80.9820   34.0190 C   0  0  0  0  0  0  0  0  0  0  0  0
   60.3620   81.5580   32.7460 N   0  0  0  0  0  0  0  0  0  0  0  0
   59.7650   81.2240   31.5420 C   0  0  0  0  0  0  0  0  0  0  0  0
   60.1020   81.8680   30.3440 C   0  0  0  0  0  0  0  0  0  0  0  0
   59.5030   81.5280   29.1200 C   0  0  0  0  0  0  0  0  0  0  0  0
   58.5330   80.5240   29.0350 C   0  0  0  0  0  0  0  0  0  0  0  0
   57.9760   80.2320   27.7880 N   0  0  0  0  0  0  0  0  0  0  0  0
   56.6840   80.2600   27.2700 C   0  0  0  0  0  0  0  0  0  0  0  0
   56.2550   81.2430   26.4660 N   0  0  0  0  0  0  0  0  0  0  0  0
   54.9870   81.1670   26.0260 C   0  0  0  0  0  0  0  0  0  0  0  0
   54.1260   80.1520   26.3580 C   0  0  0  0  0  0  0  0  0  0  0  0
   54.6410   79.1790   27.1880 C   0  0  0  0  0  0  0  0  0  0  0  0
   53.7850   78.0220   27.6410 C   0  0  0  0  0  0  0  0  0  0  0  0
   54.0210   77.6470   29.1080 C   0  0  0  0  0  0  0  0  0  0  0  0
   54.9200   76.4240   29.3050 C   0  0  0  0  0  0  0  0  0  0  0  0
   56.3100   76.8120   29.5200 N   0  0  0  0  0  0  0  0  0  0  0  0
   55.9100   79.2270   27.6450 N   0  0  0  0  0  0  0  0  0  0  0  0
   58.1920   79.8750   30.2180 C   0  0  0  0  0  0  0  0  0  0  0  0
   58.7960   80.2160   31.4400 C   0  0  0  0  0  0  0  0  0  0  0  0
   61.3830   82.6190   32.8140 C   0  0  0  0  0  0  0  0  0  0  0  0
   61.4090   83.3050   34.1930 C   0  0  0  0  0  0  0  0  0  0  0  0
   62.4067   81.7373   39.7309 H   0  0  0  0  0  0  0  0  0  0  0  0
   61.9886   83.3091   38.9684 H   0  0  0  0  0  0  0  0  0  0  0  0
   60.7964   81.9655   38.9684 H   0  0  0  0  0  0  0  0  0  0  0  0
   61.8638   80.8361   37.2403 H   0  0  0  0  0  0  0  0  0  0  0  0
   64.2080   82.0990   38.2460 H   0  0  0  0  0  0  0  0  0  0  0  0
   61.8184   80.3483   34.7828 H   0  0  0  0  0  0  0  0  0  0  0  0
   60.5473   80.7101   36.0429 H   0  0  0  0  0  0  0  0  0  0  0  0
   59.6042   79.9362   33.8509 H   0  0  0  0  0  0  0  0  0  0  0  0
   59.0499   81.5789   34.3786 H   0  0  0  0  0  0  0  0  0  0  0  0
   60.8598   82.6651   30.3628 H   0  0  0  0  0  0  0  0  0  0  0  0
   59.8036   82.0636   28.2074 H   0  0  0  0  0  0  0  0  0  0  0  0
   58.6050   79.9440   27.0550 H   0  0  0  0  0  0  0  0  0  0  0  0
   54.6192   81.9635   25.3624 H   0  0  0  0  0  0  0  0  0  0  0  0
   53.0914   80.1167   25.9860 H   0  0  0  0  0  0  0  0  0  0  0  0
   52.7274   78.2966   27.5142 H   0  0  0  0  0  0  0  0  0  0  0  0
   54.0565   77.1496   27.0285 H   0  0  0  0  0  0  0  0  0  0  0  0
   54.4897   78.5048   29.6124 H   0  0  0  0  0  0  0  0  0  0  0  0
   53.0388   77.3893   29.5308 H   0  0  0  0  0  0  0  0  0  0  0  0
   54.5673   75.8582   30.1799 H   0  0  0  0  0  0  0  0  0  0  0  0
   54.8700   75.8084   28.3948 H   0  0  0  0  0  0  0  0  0  0  0  0
   56.8570   75.9980   29.7960 H   0  0  0  0  0  0  0  0  0  0  0  0
   56.3580   77.4660   30.3000 H   0  0  0  0  0  0  0  0  0  0  0  0
   57.4338   79.0784   30.1959 H   0  0  0  0  0  0  0  0  0  0  0  0
   58.4980   79.6728   32.3489 H   0  0  0  0  0  0  0  0  0  0  0  0
   62.3704   82.1751   32.6192 H   0  0  0  0  0  0  0  0  0  0  0  0
   61.1340   83.3800   32.0598 H   0  0  0  0  0  0  0  0  0  0  0  0
   62.2491   84.0148   34.2149 H   0  0  0  0  0  0  0  0  0  0  0  0
   60.4401   83.8084   34.3267 H   0  0  0  0  0  0  0  0  0  0  0  0
  1  2  1  0
  2  3  1  0
  2  4  1  0
  4  5  2  0
  4  6  1  0
  6  7  1  0
  7  8  1  0
  8  9  1  0
  9 10  1  0
 10 11  1  0
 11 12  2  0
 12 13  1  0
 13 14  1  0
 14 15  1  0
 15 16  2  0
 16 17  1  0
 17 18  2  0
 18 19  1  0
 19 20  1  0
 20 21  1  0
 21 22  1  0
 22 23  1  0
 19 24  2  0
 13 25  2  0
 25 26  1  0
  9 27  1  0
 27 28  1  0
 28  6  1  0
 26 10  2  0
 24 15  1  0
  1 29  1  0
  1 30  1  0
  1 31  1  0
  2 32  1  0
  3 33  1  0
  7 34  1  0
  7 35  1  0
  8 36  1  0
  8 37  1  0
 11 38  1  0
 12 39  1  0
 14 40  1  0
 17 41  1  0
 18 42  1  0
 20 43  1  0
 20 44  1  0
 21 45  1  0
 21 46  1  0
 22 47  1  0
 22 48  1  0
 23 49  1  0
 23 50  1  0
 25 51  1  0
 26 52  1  0
 27 53  1  0
 27 54  1  0
 28 55  1  0
 28 56  1  0
M  END
>  <meeko>  (1) 
{"is_sidechain": false}

>  <smiles>  (1) 
CC(O)C(=O)N1CCN(c2ccc(Nc3nccc(CCCN)n3)cc2)CC1

>  <vina_score>  (1) 
-7.352

>  <job_id>  (1) 
7265329b6baa063b

$$$$

     RDKit          3D

 47 48  0  0  0  0  0  0  0  0999 V2000
   54.2960   81.8200   26.4960 C   0  0  0  0  0  0  0  0  0  0  0  0
   54.1530   80.3420   26.0930 C   0  0  1  0  0  0  0  0  0  0  0  0
   53.6350   79.6170   27.2780 N   0  0  0  0  0  0  0  0  0  0  0  0
   54.5110   78.7390   27.9460 C   0  0  0  0  0  0  0  0  0  0  0  0
   55.7900   79.1140   28.1530 N   0  0  0  0  0  0  0  0  0  0  0  0
   56.6390   78.2480   28.7360 C   0  0  0  0  0  0  0  0  0  0  0  0
   57.9310   78.7320   28.9140 N   0  0  0  0  0  0  0  0  0  0  0  0
   58.4830   79.7960   29.6350 C   0  0  0  0  0  0  0  0  0  0  0  0
   58.2150   79.8800   31.0130 C   0  0  0  0  0  0  0  0  0  0  0  0
   58.7430   80.9070   31.8000 C   0  0  0  0  0  0  0  0  0  0  0  0
   59.5630   81.8680   31.2100 C   0  0  0  0  0  0  0  0  0  0  0  0
   60.2430   83.1780   32.2080 S   0  0  0  0  0  0  0  0  0  0  0  0
   61.6140   82.3960   33.0220 C   0  0  0  0  0  0  0  0  0  0  0  0
   59.1750   83.5040   33.2700 N   0  0  0  0  0  0  0  0  0  0  0  0
   60.7990   84.1630   31.3000 O   0  0  0  0  0  0  0  0  0  0  0  0
   59.8450   81.8120   29.8480 C   0  0  0  0  0  0  0  0  0  0  0  0
   59.3090   80.7760   29.0730 C   0  0  0  0  0  0  0  0  0  0  0  0
   56.2810   77.0180   29.1200 N   0  0  0  0  0  0  0  0  0  0  0  0
   55.0060   76.6500   28.8890 C   0  0  0  0  0  0  0  0  0  0  0  0
   54.0760   77.4700   28.2980 C   0  0  0  0  0  0  0  0  0  0  0  0
   52.3120   76.8580   28.0200 Br  0  0  0  0  0  0  0  0  0  0  0  0
   53.1580   80.1360   24.8990 C   0  0  0  0  0  0  0  0  0  0  0  0
   53.3160   81.2000   23.8090 C   0  0  0  0  0  0  0  0  0  0  0  0
   53.3100   78.7490   24.2630 C   0  0  0  0  0  0  0  0  0  0  0  0
   51.8120   80.2320   25.3970 O   0  0  0  0  0  0  0  0  0  0  0  0
   54.3039   81.9018   27.5929 H   0  0  0  0  0  0  0  0  0  0  0  0
   55.2371   82.2209   26.0916 H   0  0  0  0  0  0  0  0  0  0  0  0
   53.4492   82.3939   26.0916 H   0  0  0  0  0  0  0  0  0  0  0  0
   55.1334   79.9677   25.7633 H   0  0  0  0  0  0  0  0  0  0  0  0
   53.2020   80.2360   27.9630 H   0  0  0  0  0  0  0  0  0  0  0  0
   58.5780   78.1080   28.4540 H   0  0  0  0  0  0  0  0  0  0  0  0
   57.5744   79.1190   31.4826 H   0  0  0  0  0  0  0  0  0  0  0  0
   58.5139   80.9568   32.8747 H   0  0  0  0  0  0  0  0  0  0  0  0
   61.4841   82.4701   34.1118 H   0  0  0  0  0  0  0  0  0  0  0  0
   61.6585   81.3366   32.7292 H   0  0  0  0  0  0  0  0  0  0  0  0
   62.5485   82.8969   32.7292 H   0  0  0  0  0  0  0  0  0  0  0  0
   58.3630   83.9450   32.8330 H   0  0  0  0  0  0  0  0  0  0  0  0
   60.4848   82.5767   29.3834 H   0  0  0  0  0  0  0  0  0  0  0  0
   59.5423   80.7316   27.9990 H   0  0  0  0  0  0  0  0  0  0  0  0
   54.6930   75.6392   29.1896 H   0  0  0  0  0  0  0  0  0  0  0  0
   53.4623   82.1849   24.2765 H   0  0  0  0  0  0  0  0  0  0  0  0
   54.1880   80.9577   23.1838 H   0  0  0  0  0  0  0  0  0  0  0  0
   52.4112   81.2216   23.1838 H   0  0  0  0  0  0  0  0  0  0  0  0
   53.3932   77.9898   25.0546 H   0  0  0  0  0  0  0  0  0  0  0  0
   52.4301   78.5333   23.6391 H   0  0  0  0  0  0  0  0  0  0  0  0
   54.2157   78.7290   23.6391 H   0  0  0  0  0  0  0  0  0  0  0  0
   51.3750   80.8670   24.7930 H   0  0  0  0  0  0  0  0  0  0  0  0
  1  2  1  0
  2  3  1  0
  3  4  1  0
  4  5  2  0
  5  6  1  0
  6  7  1  0
  7  8  1  0
  8  9  1  0
  9 10  2  0
 10 11  1  0
 11 12  1  0
 12 13  1  0
 12 14  2  0
 12 15  2  0
 11 16  2  0
 16 17  1  0
  6 18  2  0
 18 19  1  0
 19 20  2  0
 20 21  1  0
  2 22  1  0
 22 23  1  0
 22 24  1  0
 22 25  1  0
 20  4  1  0
 17  8  2  0
  1 26  1  0
  1 27  1  0
  1 28  1  0
  2 29  1  6
  3 30  1  0
  7 31  1  0
  9 32  1  0
 10 33  1  0
 13 34  1  0
 13 35  1  0
 13 36  1  0
 14 37  1  0
 16 38  1  0
 17 39  1  0
 19 40  1  0
 23 41  1  0
 23 42  1  0
 23 43  1  0
 24 44  1  0
 24 45  1  0
 24 46  1  0
 25 47  1  0
M  END
>  <meeko>  (1) 
{"is_sidechain": false}

>  <smiles>  (1) 
C[C@@H](Nc1nc(Nc2ccc(S(C)(=N)=O)cc2)ncc1Br)C(C)(C)O

>  <vina_score>  (1) 
-7.785

>  <job_id>  (1) 
79af1acce2803590

$$$$

     RDKit          3D

 75 80  0  0  0  0  0  0  0  0999 V2000
   57.1940   87.4450   37.4690 C   0  0  0  0  0  0  0  0  0  0  0  0
   58.4360   86.6110   37.7740 C   0  0  0  0  0  0  0  0  0  0  0  0
   59.5650   86.9640   36.8960 N   0  0  0  0  0  0  0  0  0  0  0  0
   59.5210   88.3890   36.5160 C   0  0  0  0  0  0  0  0  0  0  0  0
   60.4980   89.2370   37.3270 C   0  0  0  0  0  0  0  0  0  0  0  0
   59.6860   86.0700   35.7160 C   0  0  0  0  0  0  0  0  0  0  0  0
   59.3670   86.8530   34.4220 C   0  0  0  0  0  0  0  0  0  0  0  0
   60.0580   86.2660   33.1900 C   0  0  0  0  0  0  0  0  0  0  0  0
   60.1230   84.8080   33.3070 N   0  0  0  0  0  0  0  0  0  0  0  0
   59.9070   84.0030   32.1930 C   0  0  0  0  0  0  0  0  0  0  0  0
   60.8150   83.0190   31.7980 C   0  0  0  0  0  0  0  0  0  0  0  0
   60.5900   82.2300   30.6630 C   0  0  0  0  0  0  0  0  0  0  0  0
   59.4480   82.4270   29.8950 C   0  0  0  0  0  0  0  0  0  0  0  0
   59.2650   81.6090   28.7700 N   0  0  0  0  0  0  0  0  0  0  0  0
   58.2790   80.6380   28.5920 C   0  0  0  0  0  0  0  0  0  0  0  0
   58.5100   79.4850   29.2570 N   0  0  0  0  0  0  0  0  0  0  0  0
   57.6020   78.4840   29.1800 C   0  0  0  0  0  0  0  0  0  0  0  0
   56.4490   78.6600   28.4280 C   0  0  0  0  0  0  0  0  0  0  0  0
   55.2990   77.8960   28.1170 C   0  0  0  0  0  0  0  0  0  0  0  0
   54.4830   78.6680   27.3080 C   0  0  0  0  0  0  0  0  0  0  0  0
   55.1300   79.8790   27.1040 N   0  0  0  0  0  0  0  0  0  0  0  0
   56.3110   79.8870   27.8020 C   0  0  0  0  0  0  0  0  0  0  0  0
   57.1800   80.9020   27.8720 N   0  0  0  0  0  0  0  0  0  0  0  0
   54.5160   80.9770   26.3220 C   0  0  0  0  0  0  0  0  0  0  0  0
   53.7420   81.8990   27.3030 C   0  0  0  0  0  0  0  0  0  0  0  0
   53.3490   83.2320   26.6740 C   0  0  0  0  0  0  0  0  0  0  0  0
   54.5480   84.0170   26.1410 C   0  0  0  0  0  0  0  0  0  0  0  0
   55.8220   83.1860   26.0200 C   0  0  0  0  0  0  0  0  0  0  0  0
   55.5380   81.7890   25.4680 C   0  0  0  0  0  0  0  0  0  0  0  0
   53.5360   80.2980   25.3140 C   0  0  0  0  0  0  0  0  0  0  0  0
   52.6760   79.2990   25.9160 N   0  0  0  0  0  0  0  0  0  0  0  0
   53.1890   78.3460   26.7610 C   0  0  0  0  0  0  0  0  0  0  0  0
   52.5610   77.3230   27.0020 O   0  0  0  0  0  0  0  0  0  0  0  0
   58.5600   83.3790   30.2290 N   0  0  0  0  0  0  0  0  0  0  0  0
   58.8110   84.1290   31.3360 C   0  0  0  0  0  0  0  0  0  0  0  0
   60.9360   84.3000   34.4220 C   0  0  0  0  0  0  0  0  0  0  0  0
   61.0120   85.3070   35.5770 C   0  0  0  0  0  0  0  0  0  0  0  0
   56.7237   87.7608   38.4119 H   0  0  0  0  0  0  0  0  0  0  0  0
   57.4824   88.3332   36.8877 H   0  0  0  0  0  0  0  0  0  0  0  0
   56.4810   86.8419   36.8877 H   0  0  0  0  0  0  0  0  0  0  0  0
   58.7316   86.7828   38.8195 H   0  0  0  0  0  0  0  0  0  0  0  0
   58.1872   85.5537   37.6003 H   0  0  0  0  0  0  0  0  0  0  0  0
   59.7760   88.4785   35.4497 H   0  0  0  0  0  0  0  0  0  0  0  0
   58.5055   88.7596   36.7195 H   0  0  0  0  0  0  0  0  0  0  0  0
   60.3166   89.0796   38.4005 H   0  0  0  0  0  0  0  0  0  0  0  0
   61.5293   88.9429   37.0824 H   0  0  0  0  0  0  0  0  0  0  0  0
   60.3519   90.2995   37.0824 H   0  0  0  0  0  0  0  0  0  0  0  0
   58.9417   85.2786   35.8883 H   0  0  0  0  0  0  0  0  0  0  0  0
   58.2795   86.8333   34.2581 H   0  0  0  0  0  0  0  0  0  0  0  0
   59.7405   87.8791   34.5545 H   0  0  0  0  0  0  0  0  0  0  0  0
   59.4882   86.5352   32.2884 H   0  0  0  0  0  0  0  0  0  0  0  0
   61.0782   86.6710   33.1176 H   0  0  0  0  0  0  0  0  0  0  0  0
   61.7274   82.8598   32.3914 H   0  0  0  0  0  0  0  0  0  0  0  0
   61.3167   81.4545   30.3792 H   0  0  0  0  0  0  0  0  0  0  0  0
   59.3140   82.1280   27.9050 H   0  0  0  0  0  0  0  0  0  0  0  0
   57.7771   77.5364   29.7105 H   0  0  0  0  0  0  0  0  0  0  0  0
   55.0906   76.8710   28.4576 H   0  0  0  0  0  0  0  0  0  0  0  0
   52.8279   81.3797   27.6265 H   0  0  0  0  0  0  0  0  0  0  0  0
   54.4090   82.1159   28.1504 H   0  0  0  0  0  0  0  0  0  0  0  0
   52.6592   83.0363   25.8398 H   0  0  0  0  0  0  0  0  0  0  0  0
   52.8796   83.8415   27.4603 H   0  0  0  0  0  0  0  0  0  0  0  0
   54.2923   84.4072   25.1448 H   0  0  0  0  0  0  0  0  0  0  0  0
   54.7550   84.8181   26.8658 H   0  0  0  0  0  0  0  0  0  0  0  0
   56.5202   83.7010   25.3437 H   0  0  0  0  0  0  0  0  0  0  0  0
   56.2548   83.0751   27.0252 H   0  0  0  0  0  0  0  0  0  0  0  0
   55.1357   81.8925   24.4495 H   0  0  0  0  0  0  0  0  0  0  0  0
   56.4879   81.2347   25.4878 H   0  0  0  0  0  0  0  0  0  0  0  0
   52.9017   81.0783   24.8682 H   0  0  0  0  0  0  0  0  0  0  0  0
   54.1543   79.7795   24.5665 H   0  0  0  0  0  0  0  0  0  0  0  0
   51.8390   78.9960   25.4340 H   0  0  0  0  0  0  0  0  0  0  0  0
   58.0783   84.9122   31.5805 H   0  0  0  0  0  0  0  0  0  0  0  0
   60.4881   83.3662   34.7927 H   0  0  0  0  0  0  0  0  0  0  0  0
   61.9570   84.1285   34.0502 H   0  0  0  0  0  0  0  0  0  0  0  0
   61.2192   84.7683   36.5134 H   0  0  0  0  0  0  0  0  0  0  0  0
   61.8160   86.0278   35.3673 H   0  0  0  0  0  0  0  0  0  0  0  0
  1  2  1  0
  2  3  1  0
  3  4  1  0
  4  5  1  0
  3  6  1  0
  6  7  1  0
  7  8  1  0
  8  9  1  0
  9 10  1  0
 10 11  2  0
 11 12  1  0
 12 13  2  0
 13 14  1  0
 14 15  1  0
 15 16  2  0
 16 17  1  0
 17 18  2  0
 18 19  1  0
 19 20  2  0
 20 21  1  0
 21 22  1  0
 22 23  2  0
 21 24  1  0
 24 25  1  0
 25 26  1  0
 26 27  1  0
 27 28  1  0
 28 29  1  0
 24 30  1  0
 30 31  1  0
 31 32  1  0
 32 33  2  0
 13 34  1  0
 34 35  2  0
  9 36  1  0
 36 37  1  0
 37  6  1  0
 35 10  1  0
 23 15  1  0
 29 24  1  0
 22 18  1  0
 32 20  1  0
  1 38  1  0
  1 39  1  0
  1 40  1  0
  2 41  1  0
  2 42  1  0
  4 43  1  0
  4 44  1  0
  5 45  1  0
  5 46  1  0
  5 47  1  0
  6 48  1  0
  7 49  1  0
  7 50  1  0
  8 51  1  0
  8 52  1  0
 11 53  1  0
 12 54  1  0
 14 55  1  0
 17 56  1  0
 19 57  1  0
 25 58  1  0
 25 59  1  0
 26 60  1  0
 26 61  1  0
 27 62  1  0
 27 63  1  0
 28 64  1  0
 28 65  1  0
 29 66  1  0
 29 67  1  0
 30 68  1  0
 30 69  1  0
 31 70  1  0
 35 71  1  0
 36 72  1  0
 36 73  1  0
 37 74  1  0
 37 75  1  0
M  END
>  <meeko>  (1) 
{"is_sidechain": false}

>  <smiles>  (1) 
CCN(CC)C1CCN(c2ccc(Nc3ncc4cc5n(c4n3)C3(CCCCC3)CNC5=O)nc2)CC1

>  <vina_score>  (1) 
-7.834

>  <job_id>  (1) 
7e7584e64fe35e26

$$$$

     RDKit          3D

 36 38  0  0  0  0  0  0  0  0999 V2000
   49.7770   81.3570   22.0190 N   0  0  0  0  0  0  0  0  0  0  0  0
   51.4210   81.6900   21.8760 S   0  0  0  0  0  0  0  0  0  0  0  0
   51.6040   83.1110   22.0420 O   0  0  0  0  0  0  0  0  0  0  0  0
   51.8600   80.9800   20.6950 O   0  0  0  0  0  0  0  0  0  0  0  0
   52.0730   80.8660   23.3030 C   0  0  0  0  0  0  0  0  0  0  0  0
   52.7760   79.6720   23.1460 C   0  0  0  0  0  0  0  0  0  0  0  0
   53.2870   79.0220   24.2730 C   0  0  0  0  0  0  0  0  0  0  0  0
   53.1040   79.5500   25.5610 C   0  0  0  0  0  0  0  0  0  0  0  0
   53.6080   78.8410   26.6640 N   0  0  0  0  0  0  0  0  0  0  0  0
   54.8190   78.9360   27.3700 C   0  0  0  0  0  0  0  0  0  0  0  0
   55.1020   78.1880   28.5130 C   0  0  0  0  0  0  0  0  0  0  0  0
   56.3110   78.3500   29.2050 C   0  0  0  0  0  0  0  0  0  0  0  0
   57.2860   79.2720   28.7920 C   0  0  0  0  0  0  0  0  0  0  0  0
   58.6070   79.4820   29.5090 C   0  0  0  0  0  0  0  0  0  0  0  0
   58.6820   80.2730   30.7930 C   0  0  0  0  0  0  0  0  0  0  0  0
   59.2800   80.8330   29.5330 C   0  0  0  0  0  0  0  0  0  0  0  0
   56.9840   80.0230   27.6450 C   0  0  0  0  0  0  0  0  0  0  0  0
   55.7790   79.8630   26.9490 C   0  0  0  0  0  0  0  0  0  0  0  0
   52.3790   80.7430   25.6930 C   0  0  0  0  0  0  0  0  0  0  0  0
   51.8630   81.4030   24.5730 C   0  0  0  0  0  0  0  0  0  0  0  0
   49.3660   81.7260   22.8760 H   0  0  0  0  0  0  0  0  0  0  0  0
   49.6360   80.3490   21.9330 H   0  0  0  0  0  0  0  0  0  0  0  0
   52.9272   79.2452   22.1435 H   0  0  0  0  0  0  0  0  0  0  0  0
   53.8421   78.0805   24.1487 H   0  0  0  0  0  0  0  0  0  0  0  0
   52.9550   78.1810   27.0710 H   0  0  0  0  0  0  0  0  0  0  0  0
   54.3640   77.4584   28.8779 H   0  0  0  0  0  0  0  0  0  0  0  0
   56.5011   77.7364   30.0980 H   0  0  0  0  0  0  0  0  0  0  0  0
   58.9035   78.4695   29.1976 H   0  0  0  0  0  0  0  0  0  0  0  0
   57.7712   80.7220   31.2159 H   0  0  0  0  0  0  0  0  0  0  0  0
   59.0554   80.0730   31.8082 H   0  0  0  0  0  0  0  0  0  0  0  0
   58.8066   81.6917   29.0345 H   0  0  0  0  0  0  0  0  0  0  0  0
   60.2718   81.2121   29.2455 H   0  0  0  0  0  0  0  0  0  0  0  0
   57.7159   80.7595   27.2818 H   0  0  0  0  0  0  0  0  0  0  0  0
   55.5841   80.4762   26.0568 H   0  0  0  0  0  0  0  0  0  0  0  0
   52.2133   81.1670   26.6944 H   0  0  0  0  0  0  0  0  0  0  0  0
   51.2961   82.3380   24.6928 H   0  0  0  0  0  0  0  0  0  0  0  0
  1  2  1  0
  2  3  2  0
  2  4  2  0
  2  5  1  0
  5  6  1  0
  6  7  2  0
  7  8  1  0
  8  9  1  0
  9 10  1  0
 10 11  1  0
 11 12  2  0
 12 13  1  0
 13 14  1  0
 14 15  1  0
 15 16  1  0
 13 17  2  0
 17 18  1  0
  8 19  2  0
 19 20  1  0
 20  5  2  0
 18 10  2  0
 16 14  1  0
  1 21  1  0
  1 22  1  0
  6 23  1  0
  7 24  1  0
  9 25  1  0
 11 26  1  0
 12 27  1  0
 14 28  1  0
 15 29  1  0
 15 30  1  0
 16 31  1  0
 16 32  1  0
 17 33  1  0
 18 34  1  0
 19 35  1  0
 20 36  1  0
M  END
>  <meeko>  (1) 
{"is_sidechain": false}

>  <smiles>  (1) 
NS(=O)(=O)c1ccc(Nc2ccc(C3CC3)cc2)cc1

>  <vina_score>  (1) 
-8.071

>  <job_id>  (1) 
8016672cbbefc90e

$$$$

     RDKit          3D

 60 64  0  0  0  0  0  0  0  0999 V2000
   56.4490   81.4050   26.6270 C   0  0  0  0  0  0  0  0  0  0  0  0
   55.1700   80.8100   26.3190 N   0  0  0  0  0  0  0  0  0  0  0  0
   54.4110   81.3550   25.3360 N   0  0  0  0  0  0  0  0  0  0  0  0
   53.3200   80.5590   25.2670 C   0  0  0  0  0  0  0  0  0  0  0  0
   52.2340   80.8230   24.3120 C   0  0  0  0  0  0  0  0  0  0  0  0
   52.6400   80.8830   23.0080 N   0  0  0  0  0  0  0  0  0  0  0  0
   51.0590   80.9820   24.6280 O   0  0  0  0  0  0  0  0  0  0  0  0
   53.4070   79.5120   26.2140 C   0  0  0  0  0  0  0  0  0  0  0  0
   54.5960   79.7130   26.8890 C   0  0  0  0  0  0  0  0  0  0  0  0
   55.0650   78.8430   27.9500 C   0  0  0  0  0  0  0  0  0  0  0  0
   56.0960   79.2580   28.7000 N   0  0  0  0  0  0  0  0  0  0  0  0
   56.5010   78.4240   29.6670 C   0  0  0  0  0  0  0  0  0  0  0  0
   57.5840   78.7270   30.4890 N   0  0  0  0  0  0  0  0  0  0  0  0
   58.2950   79.9020   30.7430 C   0  0  0  0  0  0  0  0  0  0  0  0
   59.1350   80.4100   29.7440 C   0  0  0  0  0  0  0  0  0  0  0  0
   59.8370   81.6100   29.9190 C   0  0  0  0  0  0  0  0  0  0  0  0
   59.7240   82.3430   31.1000 C   0  0  0  0  0  0  0  0  0  0  0  0
   60.3750   83.5690   31.3120 N   0  0  0  0  0  0  0  0  0  0  0  0
   61.6900   83.9920   31.0590 C   0  0  0  0  0  0  0  0  0  0  0  0
   62.7480   83.1020   30.8420 C   0  0  0  0  0  0  0  0  0  0  0  0
   64.0510   83.5660   30.6280 C   0  0  0  0  0  0  0  0  0  0  0  0
   64.3230   84.9350   30.6290 C   0  0  0  0  0  0  0  0  0  0  0  0
   65.9900   85.4990   30.3610 S   0  0  0  0  0  0  0  0  0  0  0  0
   66.1020   85.2930   28.6130 C   0  0  0  0  0  0  0  0  0  0  0  0
   66.8100   84.4250   28.1120 O   0  0  0  0  0  0  0  0  0  0  0  0
   65.2390   86.2660   27.8120 C   0  0  0  0  0  0  0  0  0  0  0  0
   65.8710   86.6100   26.5230 N   0  0  0  0  0  0  0  0  0  0  0  0
   63.2800   85.8320   30.8620 C   0  0  0  0  0  0  0  0  0  0  0  0
   61.9780   85.3630   31.0720 C   0  0  0  0  0  0  0  0  0  0  0  0
   58.8720   81.8480   32.0930 C   0  0  0  0  0  0  0  0  0  0  0  0
   58.1660   80.6490   31.9140 C   0  0  0  0  0  0  0  0  0  0  0  0
   55.9410   77.2200   29.8960 N   0  0  0  0  0  0  0  0  0  0  0  0
   54.8980   76.8550   29.1280 C   0  0  0  0  0  0  0  0  0  0  0  0
   54.3910   77.6450   28.1280 C   0  0  0  0  0  0  0  0  0  0  0  0
   53.2660   77.2170   27.2150 C   0  0  0  0  0  0  0  0  0  0  0  0
   52.4900   78.3890   26.5620 C   0  0  0  0  0  0  0  0  0  0  0  0
   56.5732   81.4628   27.7184 H   0  0  0  0  0  0  0  0  0  0  0  0
   57.2529   80.7884   26.1986 H   0  0  0  0  0  0  0  0  0  0  0  0
   56.4953   82.4171   26.1986 H   0  0  0  0  0  0  0  0  0  0  0  0
   53.6280   80.7730   22.8080 H   0  0  0  0  0  0  0  0  0  0  0  0
   51.9760   81.0890   22.2820 H   0  0  0  0  0  0  0  0  0  0  0  0
   57.7350   77.9600   31.1290 H   0  0  0  0  0  0  0  0  0  0  0  0
   59.2461   79.8546   28.8010 H   0  0  0  0  0  0  0  0  0  0  0  0
   60.4873   81.9796   29.1124 H   0  0  0  0  0  0  0  0  0  0  0  0
   59.7930   84.2700   31.7570 H   0  0  0  0  0  0  0  0  0  0  0  0
   62.5522   82.0196   30.8396 H   0  0  0  0  0  0  0  0  0  0  0  0
   64.8660   82.8471   30.4579 H   0  0  0  0  0  0  0  0  0  0  0  0
   64.2610   85.8012   27.6184 H   0  0  0  0  0  0  0  0  0  0  0  0
   65.1228   87.1895   28.3983 H   0  0  0  0  0  0  0  0  0  0  0  0
   65.1890   86.4430   25.7790 H   0  0  0  0  0  0  0  0  0  0  0  0
   66.0090   87.6240   26.4990 H   0  0  0  0  0  0  0  0  0  0  0  0
   63.4819   86.9131   30.8808 H   0  0  0  0  0  0  0  0  0  0  0  0
   61.1664   86.0838   31.2504 H   0  0  0  0  0  0  0  0  0  0  0  0
   58.7534   82.4093   33.0316 H   0  0  0  0  0  0  0  0  0  0  0  0
   57.4984   80.2913   32.7117 H   0  0  0  0  0  0  0  0  0  0  0  0
   54.4298   75.8766   29.3109 H   0  0  0  0  0  0  0  0  0  0  0  0
   53.6914   76.5966   26.4124 H   0  0  0  0  0  0  0  0  0  0  0  0
   52.5437   76.6725   27.8410 H   0  0  0  0  0  0  0  0  0  0  0  0
   51.9993   78.0287   25.6458 H   0  0  0  0  0  0  0  0  0  0  0  0
   51.7435   78.7574   27.2810 H   0  0  0  0  0  0  0  0  0  0  0  0
  1  2  1  0
  2  3  1  0
  3  4  2  0
  4  5  1  0
  5  6  1  0
  5  7  2  0
  4  8  1  0
  8  9  2  0
  9 10  1  0
 10 11  2  0
 11 12  1  0
 12 13  1  0
 13 14  1  0
 14 15  1  0
 15 16  2  0
 16 17  1  0
 17 18  1  0
 18 19  1  0
 19 20  1  0
 20 21  2  0
 21 22  1  0
 22 23  1  0
 23 24  1  0
 24 25  2  0
 24 26  1  0
 26 27  1  0
 22 28  2  0
 28 29  1  0
 17 30  2  0
 30 31  1  0
 12 32  2  0
 32 33  1  0
 33 34  2  0
 34 35  1  0
 35 36  1  0
  9  2  1  0
 34 10  1  0
 36  8  1  0
 31 14  2  0
 29 19  2  0
  1 37  1  0
  1 38  1  0
  1 39  1  0
  6 40  1  0
  6 41  1  0
 13 42  1  0
 15 43  1  0
 16 44  1  0
 18 45  1  0
 20 46  1  0
 21 47  1  0
 26 48  1  0
 26 49  1  0
 27 50  1  0
 27 51  1  0
 28 52  1  0
 29 53  1  0
 30 54  1  0
 31 55  1  0
 33 56  1  0
 35 57  1  0
 35 58  1  0
 36 59  1  0
 36 60  1  0
M  END
>  <meeko>  (1) 
{"is_sidechain": false}

>  <smiles>  (1) 
Cn1nc(C(N)=O)c2c1-c1nc(Nc3ccc(Nc4ccc(SC(=O)CN)cc4)cc3)ncc1CC2

>  <vina_score>  (1) 
-8.511

>  <job_id>  (1) 
824191bc02110b98

$$$$

     RDKit          3D

 54 58  0  0  0  0  0  0  0  0999 V2000
   60.8780   81.1530   32.7110 N   0  0  0  0  0  0  0  0  0  0  0  0
   60.0420   81.0570   31.5790 C   0  0  0  0  0  0  0  0  0  0  0  0
   58.9740   80.1530   31.5950 C   0  0  0  0  0  0  0  0  0  0  0  0
   58.2080   79.9410   30.4470 C   0  0  0  0  0  0  0  0  0  0  0  0
   58.5260   80.5900   29.2540 C   0  0  0  0  0  0  0  0  0  0  0  0
   57.7540   80.3690   28.1060 N   0  0  0  0  0  0  0  0  0  0  0  0
   56.6790   81.0790   27.9980 C   0  0  0  0  0  0  0  0  0  0  0  0
   55.7420   80.9870   26.8740 C   0  0  0  0  0  0  0  0  0  0  0  0
   55.6290   81.9930   25.7750 C   0  0  0  0  0  0  0  0  0  0  0  0
   56.2490   83.0310   25.6420 O   0  0  0  0  0  0  0  0  0  0  0  0
   54.7050   81.4920   24.8840 N   0  0  0  0  0  0  0  0  0  0  0  0
   54.2580   80.2870   25.2950 C   0  0  0  0  0  0  0  0  0  0  0  0
   53.4280   79.4460   24.6730 C   0  0  0  0  0  0  0  0  0  0  0  0
   53.1250   78.1600   25.2850 C   0  0  0  0  0  0  0  0  0  0  0  0
   53.6040   77.7930   26.4950 C   0  0  0  0  0  0  0  0  0  0  0  0
   53.3000   76.5900   27.1100 N   0  0  0  0  0  0  0  0  0  0  0  0
   53.6720   76.3040   28.3980 C   0  0  0  0  0  0  0  0  0  0  0  0
   54.4050   77.1570   29.1270 C   0  0  0  0  0  0  0  0  0  0  0  0
   54.8230   78.4160   28.5280 C   0  0  0  0  0  0  0  0  0  0  0  0
   54.4940   78.7440   27.2570 C   0  0  0  0  0  0  0  0  0  0  0  0
   54.8830   79.9900   26.5760 C   0  0  0  0  0  0  0  0  0  0  0  0
   59.6080   81.4710   29.2200 C   0  0  0  0  0  0  0  0  0  0  0  0
   60.3810   81.7010   30.3680 C   0  0  0  0  0  0  0  0  0  0  0  0
   61.5090   82.5480   30.3140 N   0  0  0  0  0  0  0  0  0  0  0  0
   61.2670   83.6300   30.8940 N   0  0  0  0  0  0  0  0  0  0  0  0
   62.3880   84.4810   30.8580 C   0  0  0  0  0  0  0  0  0  0  0  0
   62.2000   85.8560   31.0450 C   0  0  0  0  0  0  0  0  0  0  0  0
   63.2810   86.7400   30.9920 C   0  0  0  0  0  0  0  0  0  0  0  0
   64.5640   86.2420   30.7480 C   0  0  0  0  0  0  0  0  0  0  0  0
   65.9330   87.3590   30.6500 S   0  0  0  0  0  0  0  0  0  0  0  0
   66.7540   86.7800   29.3040 N   0  0  0  0  0  0  0  0  0  0  0  0
   65.4520   88.6710   30.2880 O   0  0  0  0  0  0  0  0  0  0  0  0
   66.8100   87.1360   31.7750 O   0  0  0  0  0  0  0  0  0  0  0  0
   64.7680   84.8780   30.5320 C   0  0  0  0  0  0  0  0  0  0  0  0
   63.6790   84.0030   30.5860 C   0  0  0  0  0  0  0  0  0  0  0  0
   60.9030   80.3080   33.2730 H   0  0  0  0  0  0  0  0  0  0  0  0
   60.6650   81.9860   33.2590 H   0  0  0  0  0  0  0  0  0  0  0  0
   58.7361   79.6053   32.5188 H   0  0  0  0  0  0  0  0  0  0  0  0
   57.3473   79.2570   30.4837 H   0  0  0  0  0  0  0  0  0  0  0  0
   56.4531   81.7973   28.7998 H   0  0  0  0  0  0  0  0  0  0  0  0
   54.4690   81.9630   24.0250 H   0  0  0  0  0  0  0  0  0  0  0  0
   52.9777   79.7219   23.7081 H   0  0  0  0  0  0  0  0  0  0  0  0
   52.4786   77.4568   24.7395 H   0  0  0  0  0  0  0  0  0  0  0  0
   52.6620   75.9600   26.6400 H   0  0  0  0  0  0  0  0  0  0  0  0
   53.3605   75.3486   28.8453 H   0  0  0  0  0  0  0  0  0  0  0  0
   54.6862   76.9096   30.1613 H   0  0  0  0  0  0  0  0  0  0  0  0
   55.4223   79.1196   29.1244 H   0  0  0  0  0  0  0  0  0  0  0  0
   59.8574   81.9906   28.2831 H   0  0  0  0  0  0  0  0  0  0  0  0
   61.1890   86.2450   31.2360 H   0  0  0  0  0  0  0  0  0  0  0  0
   63.1236   87.8184   31.1410 H   0  0  0  0  0  0  0  0  0  0  0  0
   67.0940   87.5620   28.7440 H   0  0  0  0  0  0  0  0  0  0  0  0
   67.4880   86.1350   29.5990 H   0  0  0  0  0  0  0  0  0  0  0  0
   65.7773   84.4948   30.3210 H   0  0  0  0  0  0  0  0  0  0  0  0
   63.8359   82.9280   30.4134 H   0  0  0  0  0  0  0  0  0  0  0  0
  1  2  1  0
  2  3  1  0
  3  4  2  0
  4  5  1  0
  5  6  1  0
  6  7  2  3
  7  8  1  0
  8  9  1  0
  9 10  2  0
  9 11  1  0
 11 12  1  0
 12 13  2  0
 13 14  1  0
 14 15  2  0
 15 16  1  0
 16 17  1  0
 17 18  2  0
 18 19  1  0
 19 20  2  0
 20 21  1  0
  5 22  2  0
 22 23  1  0
 23 24  1  0
 24 25  2  3
 25 26  1  0
 26 27  1  0
 27 28  2  0
 28 29  1  0
 29 30  1  0
 30 31  1  0
 30 32  2  0
 30 33  2  0
 29 34  2  0
 34 35  1  0
 23  2  2  0
 35 26  2  0
 21  8  2  0
 21 12  1  0
 20 15  1  0
  1 36  1  0
  1 37  1  0
  3 38  1  0
  4 39  1  0
  7 40  1  0
 11 41  1  0
 13 42  1  0
 14 43  1  0
 16 44  1  0
 17 45  1  0
 18 46  1  0
 19 47  1  0
 22 48  1  0
 27 49  1  0
 28 50  1  0
 31 51  1  0
 31 52  1  0
 34 53  1  0
 35 54  1  0
M  END
>  <meeko>  (1) 
{"is_sidechain": false}

>  <smiles>  (1) 
Nc1ccc(N=Cc2c(=O)[nH]c3ccc4[nH]cccc4c23)cc1N=Nc1ccc(S(N)(=O)=O)cc1

>  <vina_score>  (1) 
-8.138

>  <job_id>  (1) 
8445f267e12788b5

$$$$

     RDKit          3D

 32 34  0  0  0  0  0  0  0  0999 V2000
   50.5040   81.1190   20.5090 C   0  0  0  0  0  0  0  0  0  0  0  0
   51.2270   80.6080   21.6470 N   0  0  0  0  0  0  0  0  0  0  0  0
   52.0020   81.4490   22.4180 C   0  0  0  0  0  0  0  0  0  0  0  0
   52.1840   82.6340   22.1590 O   0  0  0  0  0  0  0  0  0  0  0  0
   52.6010   80.8560   23.6450 C   0  0  0  0  0  0  0  0  0  0  0  0
   52.6870   81.5640   24.8470 C   0  0  0  0  0  0  0  0  0  0  0  0
   53.2560   80.9630   25.9760 C   0  0  0  0  0  0  0  0  0  0  0  0
   53.7350   79.6460   25.9260 C   0  0  0  0  0  0  0  0  0  0  0  0
   54.3330   79.0310   27.1110 C   0  0  0  0  0  0  0  0  0  0  0  0
   55.5420   79.2430   27.6420 C   0  0  0  0  0  0  0  0  0  0  0  0
   56.6650   80.0710   27.3080 C   0  0  0  0  0  0  0  0  0  0  0  0
   57.7550   80.0310   28.0930 C   0  0  0  0  0  0  0  0  0  0  0  0
   57.8200   79.1690   29.2610 C   0  0  0  0  0  0  0  0  0  0  0  0
   56.8120   78.3570   29.6220 C   0  0  0  0  0  0  0  0  0  0  0  0
   55.5880   78.3440   28.8000 C   0  0  0  0  0  0  0  0  0  0  0  0
   54.5330   77.6260   28.9760 N   0  0  0  0  0  0  0  0  0  0  0  0
   53.6850   77.9770   27.9520 C   0  0  0  0  0  0  0  0  0  0  0  0
   52.5770   77.5120   27.7410 O   0  0  0  0  0  0  0  0  0  0  0  0
   53.6400   78.9410   24.7160 C   0  0  0  0  0  0  0  0  0  0  0  0
   53.0690   79.5390   23.5870 C   0  0  0  0  0  0  0  0  0  0  0  0
   49.6517   81.7214   20.8564 H   0  0  0  0  0  0  0  0  0  0  0  0
   51.1727   81.7462   19.9012 H   0  0  0  0  0  0  0  0  0  0  0  0
   50.1360   80.2793   19.9012 H   0  0  0  0  0  0  0  0  0  0  0  0
   50.9060   79.7390   22.0540 H   0  0  0  0  0  0  0  0  0  0  0  0
   52.3071   82.5947   24.9059 H   0  0  0  0  0  0  0  0  0  0  0  0
   53.3283   81.5314   26.9150 H   0  0  0  0  0  0  0  0  0  0  0  0
   56.6344   80.7267   26.4253 H   0  0  0  0  0  0  0  0  0  0  0  0
   58.6185   80.6659   27.8455 H   0  0  0  0  0  0  0  0  0  0  0  0
   58.7324   79.1817   29.8753 H   0  0  0  0  0  0  0  0  0  0  0  0
   56.8982   77.7158   30.5116 H   0  0  0  0  0  0  0  0  0  0  0  0
   54.0176   77.9097   24.6547 H   0  0  0  0  0  0  0  0  0  0  0  0
   52.9877   78.9704   22.6489 H   0  0  0  0  0  0  0  0  0  0  0  0
  1  2  1  0
  2  3  1  0
  3  4  2  0
  3  5  1  0
  5  6  1  0
  6  7  2  0
  7  8  1  0
  8  9  1  0
  9 10  2  0
 10 11  1  0
 11 12  2  0
 12 13  1  0
 13 14  2  0
 14 15  1  0
 15 16  2  0
 16 17  1  0
 17 18  2  0
  8 19  2  0
 19 20  1  0
 20  5  2  0
 17  9  1  0
 15 10  1  0
  1 21  1  0
  1 22  1  0
  1 23  1  0
  2 24  1  0
  6 25  1  0
  7 26  1  0
 11 27  1  0
 12 28  1  0
 13 29  1  0
 14 30  1  0
 19 31  1  0
 20 32  1  0
M  END
>  <meeko>  (1) 
{"is_sidechain": false}

>  <smiles>  (1) 
CNC(=O)c1ccc(C2=c3ccccc3=NC2=O)cc1

>  <vina_score>  (1) 
-8.378

>  <job_id>  (1) 
850b019bfe6ca6cc

$$$$

     RDKit          3D

 32 33  0  0  0  0  0  0  0  0999 V2000
   57.5360   79.4810   30.2150 C   0  0  0  0  0  0  0  0  0  0  0  0
   57.4440   79.3800   28.4480 S   0  0  0  0  0  0  0  0  0  0  0  0
   58.3460   78.3260   28.0200 O   0  0  0  0  0  0  0  0  0  0  0  0
   57.5670   80.7260   27.9140 O   0  0  0  0  0  0  0  0  0  0  0  0
   55.7930   78.8280   28.0920 C   0  0  0  0  0  0  0  0  0  0  0  0
   55.2090   77.8630   28.8940 C   0  0  0  0  0  0  0  0  0  0  0  0
   53.9150   77.4800   28.5750 C   0  0  0  0  0  0  0  0  0  0  0  0
   53.2740   78.0680   27.4820 C   0  0  0  0  0  0  0  0  0  0  0  0
   53.9420   79.0360   26.7250 C   0  0  0  0  0  0  0  0  0  0  0  0
   53.3310   79.6970   25.5540 C   0  0  0  0  0  0  0  0  0  0  0  0
   53.3100   79.0550   24.3000 C   0  0  0  0  0  0  0  0  0  0  0  0
   52.7370   79.6600   23.1770 C   0  0  0  0  0  0  0  0  0  0  0  0
   52.1600   80.9240   23.3010 C   0  0  0  0  0  0  0  0  0  0  0  0
   51.4380   81.6920   21.8760 S   0  0  0  0  0  0  0  0  0  0  0  0
   49.8050   81.3570   22.1030 N   0  0  0  0  0  0  0  0  0  0  0  0
   51.5650   83.1250   22.0150 O   0  0  0  0  0  0  0  0  0  0  0  0
   51.8830   80.9820   20.7010 O   0  0  0  0  0  0  0  0  0  0  0  0
   52.1670   81.5910   24.5270 C   0  0  0  0  0  0  0  0  0  0  0  0
   52.7440   80.9750   25.6420 C   0  0  0  0  0  0  0  0  0  0  0  0
   55.2030   79.4320   27.0280 N   0  0  0  0  0  0  0  0  0  0  0  0
   56.8588   78.7375   30.6605 H   0  0  0  0  0  0  0  0  0  0  0  0
   58.5672   79.2793   30.5406 H   0  0  0  0  0  0  0  0  0  0  0  0
   57.2392   80.4889   30.5406 H   0  0  0  0  0  0  0  0  0  0  0  0
   55.7466   77.4202   29.7454 H   0  0  0  0  0  0  0  0  0  0  0  0
   53.3974   76.7193   29.1778 H   0  0  0  0  0  0  0  0  0  0  0  0
   52.2483   77.7710   27.2178 H   0  0  0  0  0  0  0  0  0  0  0  0
   53.7550   78.0538   24.2020 H   0  0  0  0  0  0  0  0  0  0  0  0
   52.7412   79.1443   22.2054 H   0  0  0  0  0  0  0  0  0  0  0  0
   49.1920   82.1210   21.8210 H   0  0  0  0  0  0  0  0  0  0  0  0
   49.5750   80.4850   21.6220 H   0  0  0  0  0  0  0  0  0  0  0  0
   51.7222   82.5932   24.6155 H   0  0  0  0  0  0  0  0  0  0  0  0
   52.7395   81.4996   26.6089 H   0  0  0  0  0  0  0  0  0  0  0  0
  1  2  1  0
  2  3  2  0
  2  4  2  0
  2  5  1  0
  5  6  2  0
  6  7  1  0
  7  8  2  0
  8  9  1  0
  9 10  1  0
 10 11  1  0
 11 12  2  0
 12 13  1  0
 13 14  1  0
 14 15  1  0
 14 16  2  0
 14 17  2  0
 13 18  2  0
 18 19  1  0
  9 20  2  0
 20  5  1  0
 19 10  2  0
  1 21  1  0
  1 22  1  0
  1 23  1  0
  6 24  1  0
  7 25  1  0
  8 26  1  0
 11 27  1  0
 12 28  1  0
 15 29  1  0
 15 30  1  0
 18 31  1  0
 19 32  1  0
M  END
>  <meeko>  (1) 
{"is_sidechain": false}

>  <smiles>  (1) 
CS(=O)(=O)c1cccc(-c2ccc(S(N)(=O)=O)cc2)n1

>  <vina_score>  (1) 
-7.903

>  <job_id>  (1) 
87e55618678cd191

$$$$

     RDKit          3D

 52 56  0  0  0  0  0  0  0  0999 V2000
   62.8990   88.9650   30.3470 C   0  0  0  0  0  0  0  0  0  0  0  0
   63.4630   87.6370   30.2630 N   0  0  0  0  0  0  0  0  0  0  0  0
   63.3680   86.6890   31.2450 C   0  0  0  0  0  0  0  0  0  0  0  0
   64.0450   85.5640   30.8220 C   0  0  0  0  0  0  0  0  0  0  0  0
   64.1970   84.3820   31.5990 C   0  0  0  0  0  0  0  0  0  0  0  0
   63.3100   83.4000   31.8480 C   0  0  0  0  0  0  0  0  0  0  0  0
   61.9520   83.2730   31.4450 C   0  0  0  0  0  0  0  0  0  0  0  0
   61.5240   82.4410   30.4340 C   0  0  0  0  0  0  0  0  0  0  0  0
   60.1660   82.5830   30.3120 N   0  0  0  0  0  0  0  0  0  0  0  0
   59.3490   81.8380   29.3620 C   0  0  0  0  0  0  0  0  0  0  0  0
   59.3100   80.3430   29.6770 C   0  0  0  0  0  0  0  0  0  0  0  0
   58.8410   80.1330   31.0170 O   0  0  0  0  0  0  0  0  0  0  0  0
   58.3560   79.6100   28.7300 C   0  0  0  0  0  0  0  0  0  0  0  0
   58.9350   78.3470   28.3950 O   0  0  0  0  0  0  0  0  0  0  0  0
   59.6940   83.4910   31.2390 C   0  0  0  0  0  0  0  0  0  0  0  0
   58.3930   83.9570   31.4970 C   0  0  0  0  0  0  0  0  0  0  0  0
   58.2160   84.8900   32.5200 C   0  0  0  0  0  0  0  0  0  0  0  0
   59.2950   85.3440   33.2680 C   0  0  0  0  0  0  0  0  0  0  0  0
   60.5860   84.8750   33.0080 C   0  0  0  0  0  0  0  0  0  0  0  0
   60.8020   83.9380   31.9720 C   0  0  0  0  0  0  0  0  0  0  0  0
   64.0050   82.3780   32.6690 C   0  0  0  0  0  0  0  0  0  0  0  0
   63.5480   81.3240   33.0730 O   0  0  0  0  0  0  0  0  0  0  0  0
   65.2550   82.8250   32.8950 N   0  0  0  0  0  0  0  0  0  0  0  0
   65.4640   83.9990   32.2690 C   0  0  0  0  0  0  0  0  0  0  0  0
   66.5190   84.6080   32.2580 O   0  0  0  0  0  0  0  0  0  0  0  0
   64.5580   85.8380   29.5160 C   0  0  0  0  0  0  0  0  0  0  0  0
   65.3260   85.1130   28.5800 C   0  0  0  0  0  0  0  0  0  0  0  0
   65.6850   85.7040   27.3630 C   0  0  0  0  0  0  0  0  0  0  0  0
   65.2980   87.0060   27.0680 C   0  0  0  0  0  0  0  0  0  0  0  0
   64.5420   87.7520   27.9770 C   0  0  0  0  0  0  0  0  0  0  0  0
   64.1850   87.1490   29.1940 C   0  0  0  0  0  0  0  0  0  0  0  0
   62.7795   89.2464   31.4036 H   0  0  0  0  0  0  0  0  0  0  0  0
   63.5708   89.6808   29.8506 H   0  0  0  0  0  0  0  0  0  0  0  0
   61.9174   88.9786   29.8506 H   0  0  0  0  0  0  0  0  0  0  0  0
   62.8431   86.8040   32.2048 H   0  0  0  0  0  0  0  0  0  0  0  0
   62.1609   81.7782   29.8299 H   0  0  0  0  0  0  0  0  0  0  0  0
   58.3227   82.2327   29.3925 H   0  0  0  0  0  0  0  0  0  0  0  0
   59.7972   81.9600   28.3649 H   0  0  0  0  0  0  0  0  0  0  0  0
   60.3314   79.9528   29.5565 H   0  0  0  0  0  0  0  0  0  0  0  0
   59.2700   79.3020   31.3050 H   0  0  0  0  0  0  0  0  0  0  0  0
   57.3867   79.4544   29.2262 H   0  0  0  0  0  0  0  0  0  0  0  0
   58.1957   80.2058   27.8193 H   0  0  0  0  0  0  0  0  0  0  0  0
   59.8770   78.3930   28.6370 H   0  0  0  0  0  0  0  0  0  0  0  0
   57.5370   83.5958   30.9081 H   0  0  0  0  0  0  0  0  0  0  0  0
   57.2073   85.2714   32.7371 H   0  0  0  0  0  0  0  0  0  0  0  0
   59.1323   86.0781   34.0709 H   0  0  0  0  0  0  0  0  0  0  0  0
   61.4336   85.2351   33.6096 H   0  0  0  0  0  0  0  0  0  0  0  0
   65.9570   82.3190   33.4060 H   0  0  0  0  0  0  0  0  0  0  0  0
   65.6423   84.0841   28.8067 H   0  0  0  0  0  0  0  0  0  0  0  0
   66.2785   85.1331   26.6337 H   0  0  0  0  0  0  0  0  0  0  0  0
   65.5902   87.4550   26.1073 H   0  0  0  0  0  0  0  0  0  0  0  0
   64.2353   88.7827   27.7454 H   0  0  0  0  0  0  0  0  0  0  0  0
  1  2  1  0
  2  3  1  0
  3  4  2  0
  4  5  1  0
  5  6  2  0
  6  7  1  0
  7  8  2  0
  8  9  1  0
  9 10  1  0
 10 11  1  0
 11 12  1  0
 11 13  1  0
 13 14  1  0
  9 15  1  0
 15 16  2  0
 16 17  1  0
 17 18  2  0
 18 19  1  0
 19 20  2  0
  6 21  1  0
 21 22  2  0
 21 23  1  0
 23 24  1  0
 24 25  2  0
  4 26  1  0
 26 27  2  0
 27 28  1  0
 28 29  2  0
 29 30  1  0
 30 31  2  0
 31  2  1  0
 24  5  1  0
 31 26  1  0
 20  7  1  0
 20 15  1  0
  1 32  1  0
  1 33  1  0
  1 34  1  0
  3 35  1  0
  8 36  1  0
 10 37  1  0
 10 38  1  0
 11 39  1  0
 12 40  1  0
 13 41  1  0
 13 42  1  0
 14 43  1  0
 16 44  1  0
 17 45  1  0
 18 46  1  0
 19 47  1  0
 23 48  1  0
 27 49  1  0
 28 50  1  0
 29 51  1  0
 30 52  1  0
M  END
>  <meeko>  (1) 
{"is_sidechain": false}

>  <smiles>  (1) 
Cn1cc(C2=C(c3cn(CC(O)CO)c4ccccc34)C(=O)NC2=O)c2ccccc21

>  <vina_score>  (1) 
-6.198

>  <job_id>  (1) 
8b462b2dd1bc1540

$$$$

     RDKit          3D

 51 53  0  0  0  0  0  0  0  0999 V2000
   52.7680   81.6630   24.0970 C   0  0  0  0  0  0  0  0  0  0  0  0
   53.1860   80.4140   24.7880 C   0  0  0  0  0  0  0  0  0  0  0  0
   52.9360   79.2020   24.3420 N   0  0  0  0  0  0  0  0  0  0  0  0
   53.4510   78.3540   25.2750 C   0  0  0  0  0  0  0  0  0  0  0  0
   54.0460   79.0370   26.3190 C   0  0  0  0  0  0  0  0  0  0  0  0
   54.6990   78.4830   27.4940 C   0  0  0  0  0  0  0  0  0  0  0  0
   54.0270   77.6600   28.3650 C   0  0  0  0  0  0  0  0  0  0  0  0
   54.7580   77.2300   29.4410 C   0  0  0  0  0  0  0  0  0  0  0  0
   56.0380   77.5830   29.6530 N   0  0  0  0  0  0  0  0  0  0  0  0
   56.6100   78.4070   28.7630 C   0  0  0  0  0  0  0  0  0  0  0  0
   57.9270   78.8390   28.8930 N   0  0  0  0  0  0  0  0  0  0  0  0
   58.5520   79.8590   29.6190 C   0  0  0  0  0  0  0  0  0  0  0  0
   58.4210   79.8570   31.0200 C   0  0  0  0  0  0  0  0  0  0  0  0
   58.9950   80.8610   31.8070 C   0  0  0  0  0  0  0  0  0  0  0  0
   59.6950   81.9010   31.1980 C   0  0  0  0  0  0  0  0  0  0  0  0
   60.3200   82.9420   32.0470 C   0  0  0  0  0  0  0  0  0  0  0  0
   61.4420   82.7100   32.4950 O   0  0  0  0  0  0  0  0  0  0  0  0
   59.6290   84.1290   32.2880 N   0  0  0  0  0  0  0  0  0  0  0  0
   58.1880   84.2890   32.1450 C   0  0  0  0  0  0  0  0  0  0  0  0
   60.3230   85.1970   32.9840 C   0  0  0  0  0  0  0  0  0  0  0  0
   59.8540   81.9130   29.8110 C   0  0  0  0  0  0  0  0  0  0  0  0
   59.2740   80.9050   29.0330 C   0  0  0  0  0  0  0  0  0  0  0  0
   55.9750   78.8670   27.6740 N   0  0  0  0  0  0  0  0  0  0  0  0
   53.8920   80.3720   25.9830 N   0  0  0  0  0  0  0  0  0  0  0  0
   54.3930   81.5600   26.6760 C   0  0  0  0  0  0  0  0  0  0  0  0
   55.5030   82.2650   25.8970 C   0  0  0  0  0  0  0  0  0  0  0  0
   53.3100   82.5310   27.1540 C   0  0  0  0  0  0  0  0  0  0  0  0
   52.5120   82.4278   24.8450 H   0  0  0  0  0  0  0  0  0  0  0  0
   53.5931   82.0275   23.4675 H   0  0  0  0  0  0  0  0  0  0  0  0
   51.8897   81.4574   23.4675 H   0  0  0  0  0  0  0  0  0  0  0  0
   53.3996   77.2574   25.2060 H   0  0  0  0  0  0  0  0  0  0  0  0
   52.9780   77.3675   28.2097 H   0  0  0  0  0  0  0  0  0  0  0  0
   54.2732   76.5622   30.1683 H   0  0  0  0  0  0  0  0  0  0  0  0
   58.4960   78.3430   28.2230 H   0  0  0  0  0  0  0  0  0  0  0  0
   57.8553   79.0489   31.5067 H   0  0  0  0  0  0  0  0  0  0  0  0
   58.8943   80.8298   32.9019 H   0  0  0  0  0  0  0  0  0  0  0  0
   57.7242   84.3405   33.1411 H   0  0  0  0  0  0  0  0  0  0  0  0
   57.9750   85.2163   31.5930 H   0  0  0  0  0  0  0  0  0  0  0  0
   57.7768   83.4310   31.5930 H   0  0  0  0  0  0  0  0  0  0  0  0
   60.2273   85.0498   34.0699 H   0  0  0  0  0  0  0  0  0  0  0  0
   61.3869   85.1859   32.7048 H   0  0  0  0  0  0  0  0  0  0  0  0
   59.8807   86.1647   32.7048 H   0  0  0  0  0  0  0  0  0  0  0  0
   60.4347   82.7141   29.3303 H   0  0  0  0  0  0  0  0  0  0  0  0
   59.3877   80.9352   27.9393 H   0  0  0  0  0  0  0  0  0  0  0  0
   54.8393   81.1682   27.6019 H   0  0  0  0  0  0  0  0  0  0  0  0
   56.2155   82.7175   26.6024 H   0  0  0  0  0  0  0  0  0  0  0  0
   56.0277   81.5343   25.2640 H   0  0  0  0  0  0  0  0  0  0  0  0
   55.0647   83.0506   25.2640 H   0  0  0  0  0  0  0  0  0  0  0  0
   53.2917   82.5474   28.2537 H   0  0  0  0  0  0  0  0  0  0  0  0
   53.5297   83.5403   26.7758 H   0  0  0  0  0  0  0  0  0  0  0  0
   52.3305   82.2029   26.7758 H   0  0  0  0  0  0  0  0  0  0  0  0
  1  2  1  0
  2  3  2  0
  3  4  1  0
  4  5  2  0
  5  6  1  0
  6  7  1  0
  7  8  2  0
  8  9  1  0
  9 10  2  0
 10 11  1  0
 11 12  1  0
 12 13  1  0
 13 14  2  0
 14 15  1  0
 15 16  1  0
 16 17  2  0
 16 18  1  0
 18 19  1  0
 18 20  1  0
 15 21  2  0
 21 22  1  0
 10 23  1  0
  5 24  1  0
 24 25  1  0
 25 26  1  0
 25 27  1  0
 24  2  1  0
 23  6  2  0
 22 12  2  0
  1 28  1  0
  1 29  1  0
  1 30  1  0
  4 31  1  0
  7 32  1  0
  8 33  1  0
 11 34  1  0
 13 35  1  0
 14 36  1  0
 19 37  1  0
 19 38  1  0
 19 39  1  0
 20 40  1  0
 20 41  1  0
 20 42  1  0
 21 43  1  0
 22 44  1  0
 25 45  1  0
 26 46  1  0
 26 47  1  0
 26 48  1  0
 27 49  1  0
 27 50  1  0
 27 51  1  0
M  END
>  <meeko>  (1) 
{"is_sidechain": false}

>  <smiles>  (1) 
Cc1ncc(-c2ccnc(Nc3ccc(C(=O)N(C)C)cc3)n2)n1C(C)C

>  <vina_score>  (1) 
-8.775

>  <job_id>  (1) 
90d2422b211f7abd

$$$$

     RDKit          3D

 68 73  0  0  0  0  0  0  0  0999 V2000
   54.3550   83.7430   25.4080 C   0  0  0  0  0  0  0  0  0  0  0  0
   52.9200   83.2400   25.2570 C   0  0  0  0  0  0  0  0  0  0  0  0
   52.1850   83.2360   26.5980 C   0  0  0  0  0  0  0  0  0  0  0  0
   52.8690   81.8910   24.5880 C   0  0  0  0  0  0  0  0  0  0  0  0
   53.2520   80.6240   24.9750 C   0  0  0  0  0  0  0  0  0  0  0  0
   53.8320   80.2610   26.1920 C   0  0  0  0  0  0  0  0  0  0  0  0
   54.1190   78.8710   26.2900 C   0  0  0  0  0  0  0  0  0  0  0  0
   54.7450   78.3580   27.5290 C   0  0  0  0  0  0  0  0  0  0  0  0
   54.0770   77.5440   28.4200 C   0  0  0  0  0  0  0  0  0  0  0  0
   54.7920   77.1440   29.5200 C   0  0  0  0  0  0  0  0  0  0  0  0
   56.0650   77.5060   29.7460 N   0  0  0  0  0  0  0  0  0  0  0  0
   56.6530   78.2930   28.8370 C   0  0  0  0  0  0  0  0  0  0  0  0
   57.9680   78.7300   28.9750 N   0  0  0  0  0  0  0  0  0  0  0  0
   58.5820   79.7720   29.6750 C   0  0  0  0  0  0  0  0  0  0  0  0
   59.3100   80.7220   28.9530 C   0  0  0  0  0  0  0  0  0  0  0  0
   59.9390   81.7850   29.6020 C   0  0  0  0  0  0  0  0  0  0  0  0
   59.8500   81.9340   31.0050 C   0  0  0  0  0  0  0  0  0  0  0  0
   60.4460   82.9760   31.7510 C   0  0  0  0  0  0  0  0  0  0  0  0
   61.1290   84.0190   31.0880 N   0  0  0  0  0  0  0  0  0  0  0  0
   60.5620   85.3550   31.3960 C   0  0  0  0  0  0  0  0  0  0  0  0
   61.5860   86.2750   32.1030 C   0  0  0  0  0  0  0  0  0  0  0  0
   62.8300   86.4780   31.3280 N   0  0  0  0  0  0  0  0  0  0  0  0
   63.8870   87.0010   32.1890 C   0  0  0  0  0  0  0  0  0  0  0  0
   63.2460   85.2300   30.6450 C   0  0  0  0  0  0  0  0  0  0  0  0
   62.6000   83.9430   31.2080 C   0  0  0  0  0  0  0  0  0  0  0  0
   60.3700   83.0150   33.0930 N   0  0  0  0  0  0  0  0  0  0  0  0
   59.6740   82.0380   33.6850 C   0  0  0  0  0  0  0  0  0  0  0  0
   59.0470   81.0280   33.0750 N   0  0  0  0  0  0  0  0  0  0  0  0
   59.1430   80.9770   31.7430 C   0  0  0  0  0  0  0  0  0  0  0  0
   58.5230   79.9270   31.0660 C   0  0  0  0  0  0  0  0  0  0  0  0
   56.0310   78.7270   27.7300 N   0  0  0  0  0  0  0  0  0  0  0  0
   53.8030   77.9690   25.2090 C   0  0  0  0  0  0  0  0  0  0  0  0
   53.2140   78.3570   23.9830 C   0  0  0  0  0  0  0  0  0  0  0  0
   52.9420   79.7300   23.8890 C   0  0  0  0  0  0  0  0  0  0  0  0
   52.3970   80.4250   22.8840 N   0  0  0  0  0  0  0  0  0  0  0  0
   52.3600   81.7000   23.3200 N   0  0  0  0  0  0  0  0  0  0  0  0
   51.8100   82.7050   22.4370 C   0  0  0  0  0  0  0  0  0  0  0  0
   54.6026   83.8298   26.4762 H   0  0  0  0  0  0  0  0  0  0  0  0
   55.0448   83.0331   24.9282 H   0  0  0  0  0  0  0  0  0  0  0  0
   54.4506   84.7282   24.9282 H   0  0  0  0  0  0  0  0  0  0  0  0
   52.3934   83.9455   24.5975 H   0  0  0  0  0  0  0  0  0  0  0  0
   52.9182   83.2400   27.4180 H   0  0  0  0  0  0  0  0  0  0  0  0
   51.5492   84.1307   26.6703 H   0  0  0  0  0  0  0  0  0  0  0  0
   51.5589   82.3344   26.6703 H   0  0  0  0  0  0  0  0  0  0  0  0
   54.0462   80.9797   26.9967 H   0  0  0  0  0  0  0  0  0  0  0  0
   53.0340   77.2344   28.2581 H   0  0  0  0  0  0  0  0  0  0  0  0
   54.2967   76.4928   30.2553 H   0  0  0  0  0  0  0  0  0  0  0  0
   58.5600   78.1400   28.4080 H   0  0  0  0  0  0  0  0  0  0  0  0
   59.3880   80.6304   27.8596 H   0  0  0  0  0  0  0  0  0  0  0  0
   60.5119   82.5171   29.0140 H   0  0  0  0  0  0  0  0  0  0  0  0
   60.2472   85.8317   30.4559 H   0  0  0  0  0  0  0  0  0  0  0  0
   59.7099   85.2118   32.0767 H   0  0  0  0  0  0  0  0  0  0  0  0
   61.1160   87.2554   32.2703 H   0  0  0  0  0  0  0  0  0  0  0  0
   61.8682   85.7817   33.0448 H   0  0  0  0  0  0  0  0  0  0  0  0
   63.6043   86.8611   33.2428 H   0  0  0  0  0  0  0  0  0  0  0  0
   64.8248   86.4629   31.9864 H   0  0  0  0  0  0  0  0  0  0  0  0
   64.0282   88.0729   31.9864 H   0  0  0  0  0  0  0  0  0  0  0  0
   62.9748   85.3136   29.5822 H   0  0  0  0  0  0  0  0  0  0  0  0
   64.3296   85.1319   30.8070 H   0  0  0  0  0  0  0  0  0  0  0  0
   62.9668   83.0741   30.6419 H   0  0  0  0  0  0  0  0  0  0  0  0
   62.8698   83.8392   32.2693 H   0  0  0  0  0  0  0  0  0  0  0  0
   59.6117   82.0692   34.7828 H   0  0  0  0  0  0  0  0  0  0  0  0
   57.9609   79.1852   31.6523 H   0  0  0  0  0  0  0  0  0  0  0  0
   54.0369   76.9032   25.3484 H   0  0  0  0  0  0  0  0  0  0  0  0
   52.9892   77.6453   23.1749 H   0  0  0  0  0  0  0  0  0  0  0  0
   51.3666   83.5151   23.0346 H   0  0  0  0  0  0  0  0  0  0  0  0
   52.6104   83.1133   21.8025 H   0  0  0  0  0  0  0  0  0  0  0  0
   51.0347   82.2509   21.8025 H   0  0  0  0  0  0  0  0  0  0  0  0
  1  2  1  0
  2  3  1  0
  2  4  1  0
  4  5  2  0
  5  6  1  0
  6  7  2  0
  7  8  1  0
  8  9  1  0
  9 10  2  0
 10 11  1  0
 11 12  2  0
 12 13  1  0
 13 14  1  0
 14 15  1  0
 15 16  2  0
 16 17  1  0
 17 18  2  0
 18 19  1  0
 19 20  1  0
 20 21  1  0
 21 22  1  0
 22 23  1  0
 22 24  1  0
 24 25  1  0
 18 26  1  0
 26 27  2  0
 27 28  1  0
 28 29  2  0
 29 30  1  0
 12 31  1  0
  7 32  1  0
 32 33  2  0
 33 34  1  0
 34 35  2  0
 35 36  1  0
 36 37  1  0
 36  4  1  0
 34  5  1  0
 31  8  2  0
 30 14  2  0
 29 17  1  0
 25 19  1  0
  1 38  1  0
  1 39  1  0
  1 40  1  0
  2 41  1  0
  3 42  1  0
  3 43  1  0
  3 44  1  0
  6 45  1  0
  9 46  1  0
 10 47  1  0
 13 48  1  0
 15 49  1  0
 16 50  1  0
 20 51  1  0
 20 52  1  0
 21 53  1  0
 21 54  1  0
 23 55  1  0
 23 56  1  0
 23 57  1  0
 24 58  1  0
 24 59  1  0
 25 60  1  0
 25 61  1  0
 27 62  1  0
 30 63  1  0
 32 64  1  0
 33 65  1  0
 37 66  1  0
 37 67  1  0
 37 68  1  0
M  END
>  <meeko>  (1) 
{"is_sidechain": false}

>  <smiles>  (1) 
CC(C)c1c2cc(-c3ccnc(Nc4ccc5c(N6CCN(C)CC6)ncnc5c4)n3)ccc2nn1C

>  <vina_score>  (1) 
-9.509

>  <job_id>  (1) 
90f5370759f4c72a

$$$$

     RDKit          3D

 40 43  0  0  0  0  0  0  0  0999 V2000
   52.6070   77.5080   27.5630 F   0  0  0  0  0  0  0  0  0  0  0  0
   53.3290   78.4640   26.9070 C   0  0  0  0  0  0  0  0  0  0  0  0
   53.3680   78.0490   25.6090 F   0  0  0  0  0  0  0  0  0  0  0  0
   52.5600   79.5850   26.9080 F   0  0  0  0  0  0  0  0  0  0  0  0
   54.6750   78.6710   27.4920 C   0  0  0  0  0  0  0  0  0  0  0  0
   55.0720   77.9750   28.6090 C   0  0  0  0  0  0  0  0  0  0  0  0
   56.2710   78.1230   29.1970 N   0  0  0  0  0  0  0  0  0  0  0  0
   57.1210   78.9950   28.6470 C   0  0  0  0  0  0  0  0  0  0  0  0
   58.3890   79.2280   29.1670 N   0  0  0  0  0  0  0  0  0  0  0  0
   58.9360   80.2120   30.0020 C   0  0  0  0  0  0  0  0  0  0  0  0
   59.6850   81.2460   29.4050 C   0  0  0  0  0  0  0  0  0  0  0  0
   60.2690   82.2870   30.1420 C   0  0  0  0  0  0  0  0  0  0  0  0
   60.0710   82.2560   31.5190 C   0  0  0  0  0  0  0  0  0  0  0  0
   60.4790   83.0820   32.5340 N   0  0  0  0  0  0  0  0  0  0  0  0
   59.9950   82.5780   33.7090 C   0  0  0  0  0  0  0  0  0  0  0  0
   59.3000   81.4810   33.5150 N   0  0  0  0  0  0  0  0  0  0  0  0
   59.3370   81.2630   32.1580 C   0  0  0  0  0  0  0  0  0  0  0  0
   58.7630   80.2320   31.3950 C   0  0  0  0  0  0  0  0  0  0  0  0
   56.8140   79.7150   27.5580 N   0  0  0  0  0  0  0  0  0  0  0  0
   55.6150   79.5340   26.9700 C   0  0  0  0  0  0  0  0  0  0  0  0
   55.3620   80.3210   25.8310 N   0  0  0  0  0  0  0  0  0  0  0  0
   54.7140   81.5910   25.7900 C   0  0  0  0  0  0  0  0  0  0  0  0
   55.3290   82.6320   26.5180 C   0  0  0  0  0  0  0  0  0  0  0  0
   54.8150   83.9310   26.5200 C   0  0  0  0  0  0  0  0  0  0  0  0
   53.6850   84.2300   25.7700 C   0  0  0  0  0  0  0  0  0  0  0  0
   53.0820   83.2320   25.0090 C   0  0  0  0  0  0  0  0  0  0  0  0
   53.5940   81.9250   25.0010 C   0  0  0  0  0  0  0  0  0  0  0  0
   52.7710   80.8050   23.9710 Cl  0  0  0  0  0  0  0  0  0  0  0  0
   54.3662   77.2541   29.0474 H   0  0  0  0  0  0  0  0  0  0  0  0
   58.9900   78.4590   28.9060 H   0  0  0  0  0  0  0  0  0  0  0  0
   59.8175   81.2363   28.3130 H   0  0  0  0  0  0  0  0  0  0  0  0
   60.8518   83.0844   29.6577 H   0  0  0  0  0  0  0  0  0  0  0  0
   61.0390   83.9150   32.4330 H   0  0  0  0  0  0  0  0  0  0  0  0
   60.1665   83.0349   34.6948 H   0  0  0  0  0  0  0  0  0  0  0  0
   58.1788   79.4415   31.8887 H   0  0  0  0  0  0  0  0  0  0  0  0
   56.2060   80.3510   25.2620 H   0  0  0  0  0  0  0  0  0  0  0  0
   56.2372   82.4147   27.0993 H   0  0  0  0  0  0  0  0  0  0  0  0
   55.3047   84.7161   27.1149 H   0  0  0  0  0  0  0  0  0  0  0  0
   53.2692   85.2484   25.7771 H   0  0  0  0  0  0  0  0  0  0  0  0
   52.1932   83.4708   24.4065 H   0  0  0  0  0  0  0  0  0  0  0  0
  1  2  1  0
  2  3  1  0
  2  4  1  0
  2  5  1  0
  5  6  2  0
  6  7  1  0
  7  8  2  0
  8  9  1  0
  9 10  1  0
 10 11  2  0
 11 12  1  0
 12 13  2  0
 13 14  1  0
 14 15  1  0
 15 16  2  0
 16 17  1  0
 17 18  2  0
  8 19  1  0
 19 20  2  0
 20 21  1  0
 21 22  1  0
 22 23  2  0
 23 24  1  0
 24 25  2  0
 25 26  1  0
 26 27  2  0
 27 28  1  0
 20  5  1  0
 27 22  1  0
 18 10  1  0
 17 13  1  0
  6 29  1  0
  9 30  1  0
 11 31  1  0
 12 32  1  0
 14 33  1  0
 15 34  1  0
 18 35  1  0
 21 36  1  0
 23 37  1  0
 24 38  1  0
 25 39  1  0
 26 40  1  0
M  END
>  <meeko>  (1) 
{"is_sidechain": false}

>  <smiles>  (1) 
FC(F)(F)c1cnc(Nc2ccc3[nH]cnc3c2)nc1Nc1ccccc1Cl

>  <vina_score>  (1) 
-9.504

>  <job_id>  (1) 
91c08afebb1417b3

$$$$

     RDKit          3D

 42 43  0  0  0  0  0  0  0  0999 V2000
   58.1870   80.4400   31.4460 C   0  0  0  0  0  0  0  0  0  0  0  0
   59.0410   80.4420   30.1780 C   0  0  0  0  0  0  0  0  0  0  0  0
   59.1220   81.8500   29.5900 C   0  0  0  0  0  0  0  0  0  0  0  0
   58.5620   79.4020   29.1470 C   0  0  0  0  0  0  0  0  0  0  0  0
   57.1290   78.8960   29.3450 C   0  0  0  0  0  0  0  0  0  0  0  0
   56.2400   79.2900   28.1910 C   0  0  0  0  0  0  0  0  0  0  0  0
   54.9740   78.7170   28.0400 C   0  0  0  0  0  0  0  0  0  0  0  0
   54.1460   79.0960   26.9790 C   0  0  0  0  0  0  0  0  0  0  0  0
   54.5580   80.0600   26.0450 C   0  0  0  0  0  0  0  0  0  0  0  0
   53.6830   80.4580   24.9290 C   0  0  0  0  0  0  0  0  0  0  0  0
   53.1090   79.4930   24.0800 C   0  0  0  0  0  0  0  0  0  0  0  0
   52.2770   79.8670   23.0230 C   0  0  0  0  0  0  0  0  0  0  0  0
   52.0160   81.2200   22.7980 C   0  0  0  0  0  0  0  0  0  0  0  0
   50.9550   81.6880   21.4580 S   0  0  0  0  0  0  0  0  0  0  0  0
   49.4340   81.3570   22.1030 N   0  0  0  0  0  0  0  0  0  0  0  0
   51.1310   80.7440   20.3780 O   0  0  0  0  0  0  0  0  0  0  0  0
   51.0590   83.1150   21.2690 O   0  0  0  0  0  0  0  0  0  0  0  0
   52.5600   82.1970   23.6320 C   0  0  0  0  0  0  0  0  0  0  0  0
   53.3920   81.8130   24.6870 C   0  0  0  0  0  0  0  0  0  0  0  0
   55.8280   80.6340   26.2100 C   0  0  0  0  0  0  0  0  0  0  0  0
   56.6590   80.2560   27.2700 C   0  0  0  0  0  0  0  0  0  0  0  0
   58.8424   80.4415   32.3295 H   0  0  0  0  0  0  0  0  0  0  0  0
   57.5500   81.3367   31.4605 H   0  0  0  0  0  0  0  0  0  0  0  0
   57.5542   79.5404   31.4605 H   0  0  0  0  0  0  0  0  0  0  0  0
   60.0598   80.1361   30.4582 H   0  0  0  0  0  0  0  0  0  0  0  0
   59.1644   82.5863   30.4061 H   0  0  0  0  0  0  0  0  0  0  0  0
   60.0266   81.9371   28.9703 H   0  0  0  0  0  0  0  0  0  0  0  0
   58.2333   82.0402   28.9703 H   0  0  0  0  0  0  0  0  0  0  0  0
   58.6262   79.8588   28.1484 H   0  0  0  0  0  0  0  0  0  0  0  0
   59.2145   78.5254   29.2733 H   0  0  0  0  0  0  0  0  0  0  0  0
   57.1450   77.7991   29.4258 H   0  0  0  0  0  0  0  0  0  0  0  0
   56.7259   79.3499   30.2623 H   0  0  0  0  0  0  0  0  0  0  0  0
   54.6266   77.9625   28.7611 H   0  0  0  0  0  0  0  0  0  0  0  0
   53.1547   78.6309   26.8742 H   0  0  0  0  0  0  0  0  0  0  0  0
   53.3193   78.4271   24.2521 H   0  0  0  0  0  0  0  0  0  0  0  0
   51.8303   79.1010   22.3721 H   0  0  0  0  0  0  0  0  0  0  0  0
   49.1900   82.0960   22.7640 H   0  0  0  0  0  0  0  0  0  0  0  0
   48.7150   81.2280   21.3920 H   0  0  0  0  0  0  0  0  0  0  0  0
   52.3360   83.2602   23.4607 H   0  0  0  0  0  0  0  0  0  0  0  0
   53.8272   82.5839   25.3399 H   0  0  0  0  0  0  0  0  0  0  0  0
   56.1756   81.3935   25.4942 H   0  0  0  0  0  0  0  0  0  0  0  0
   57.6494   80.7219   27.3801 H   0  0  0  0  0  0  0  0  0  0  0  0
  1  2  1  0
  2  3  1  0
  2  4  1  0
  4  5  1  0
  5  6  1  0
  6  7  1  0
  7  8  2  0
  8  9  1  0
  9 10  1  0
 10 11  1  0
 11 12  2  0
 12 13  1  0
 13 14  1  0
 14 15  1  0
 14 16  2  0
 14 17  2  0
 13 18  2  0
 18 19  1  0
  9 20  2  0
 20 21  1  0
 21  6  2  0
 19 10  2  0
  1 22  1  0
  1 23  1  0
  1 24  1  0
  2 25  1  0
  3 26  1  0
  3 27  1  0
  3 28  1  0
  4 29  1  0
  4 30  1  0
  5 31  1  0
  5 32  1  0
  7 33  1  0
  8 34  1  0
 11 35  1  0
 12 36  1  0
 15 37  1  0
 15 38  1  0
 18 39  1  0
 19 40  1  0
 20 41  1  0
 21 42  1  0
M  END
>  <meeko>  (1) 
{"is_sidechain": false}

>  <smiles>  (1) 
CC(C)CCc1ccc(-c2ccc(S(N)(=O)=O)cc2)cc1

>  <vina_score>  (1) 
-8.322

>  <job_id>  (1) 
9698b01c0cca6b31

$$$$

     RDKit          3D

 48 52  0  0  0  0  0  0  0  0999 V2000
   52.4540   79.9080   23.8190 C   0  0  0  0  0  0  0  0  0  0  0  0
   53.3100   78.8110   23.7460 C   0  0  0  0  0  0  0  0  0  0  0  0
   53.9000   78.3090   24.9070 C   0  0  0  0  0  0  0  0  0  0  0  0
   53.6460   78.9000   26.1570 C   0  0  0  0  0  0  0  0  0  0  0  0
   54.2880   78.3770   27.3740 C   0  0  0  0  0  0  0  0  0  0  0  0
   53.7470   77.1920   27.9090 C   0  0  0  0  0  0  0  0  0  0  0  0
   54.2970   76.6100   29.0370 C   0  0  0  0  0  0  0  0  0  0  0  0
   55.3980   77.2060   29.6400 C   0  0  0  0  0  0  0  0  0  0  0  0
   55.9670   78.3730   29.1540 C   0  0  0  0  0  0  0  0  0  0  0  0
   57.0180   78.8330   29.8340 N   0  0  0  0  0  0  0  0  0  0  0  0
   57.5890   79.9650   29.4080 C   0  0  0  0  0  0  0  0  0  0  0  0
   58.7340   80.4750   30.1540 C   0  0  0  0  0  0  0  0  0  0  0  0
   58.9350   80.2320   31.5020 C   0  0  0  0  0  0  0  0  0  0  0  0
   59.9830   80.6960   32.2250 N   0  0  0  0  0  0  0  0  0  0  0  0
   60.8710   81.4350   31.5490 C   0  0  0  0  0  0  0  0  0  0  0  0
   60.8020   81.7460   30.2480 N   0  0  0  0  0  0  0  0  0  0  0  0
   59.7290   81.2520   29.5850 C   0  0  0  0  0  0  0  0  0  0  0  0
   57.1810   80.6550   28.3390 N   0  0  0  0  0  0  0  0  0  0  0  0
   56.1260   80.1840   27.6460 C   0  0  0  0  0  0  0  0  0  0  0  0
   55.6890   80.9670   26.5730 N   0  0  0  0  0  0  0  0  0  0  0  0
   56.5180   82.1050   26.1810 C   0  0  0  0  0  0  0  0  0  0  0  0
   55.6930   83.3810   26.1520 C   0  0  0  0  0  0  0  0  0  0  0  0
   54.3510   83.3390   25.7700 C   0  0  0  0  0  0  0  0  0  0  0  0
   53.6110   84.5180   25.7690 C   0  0  0  0  0  0  0  0  0  0  0  0
   54.2240   85.7060   26.1450 C   0  0  0  0  0  0  0  0  0  0  0  0
   55.5600   85.6660   26.5080 C   0  0  0  0  0  0  0  0  0  0  0  0
   56.3040   84.5390   26.5170 N   0  0  0  0  0  0  0  0  0  0  0  0
   55.4310   78.9960   28.0110 C   0  0  0  0  0  0  0  0  0  0  0  0
   52.7670   79.9920   26.2150 C   0  0  0  0  0  0  0  0  0  0  0  0
   52.1810   80.4980   25.0520 C   0  0  0  0  0  0  0  0  0  0  0  0
   51.9937   80.3084   22.9037 H   0  0  0  0  0  0  0  0  0  0  0  0
   53.5206   78.3409   22.7741 H   0  0  0  0  0  0  0  0  0  0  0  0
   54.5719   77.4404   24.8432 H   0  0  0  0  0  0  0  0  0  0  0  0
   52.8774   76.7240   27.4245 H   0  0  0  0  0  0  0  0  0  0  0  0
   53.8678   75.6861   29.4519 H   0  0  0  0  0  0  0  0  0  0  0  0
   55.8332   76.7355   30.5340 H   0  0  0  0  0  0  0  0  0  0  0  0
   58.1884   79.6164   32.0252 H   0  0  0  0  0  0  0  0  0  0  0  0
   61.7338   81.8211   32.1117 H   0  0  0  0  0  0  0  0  0  0  0  0
   59.6415   81.4857   28.5137 H   0  0  0  0  0  0  0  0  0  0  0  0
   55.4260   80.3920   25.7810 H   0  0  0  0  0  0  0  0  0  0  0  0
   57.3385   82.2211   26.9044 H   0  0  0  0  0  0  0  0  0  0  0  0
   56.9221   81.9203   25.1747 H   0  0  0  0  0  0  0  0  0  0  0  0
   53.8849   82.3876   25.4740 H   0  0  0  0  0  0  0  0  0  0  0  0
   52.5515   84.5088   25.4734 H   0  0  0  0  0  0  0  0  0  0  0  0
   53.6639   86.6527   26.1543 H   0  0  0  0  0  0  0  0  0  0  0  0
   56.0436   86.6078   26.8066 H   0  0  0  0  0  0  0  0  0  0  0  0
   52.5368   80.4545   27.1861 H   0  0  0  0  0  0  0  0  0  0  0  0
   51.5036   81.3628   25.1094 H   0  0  0  0  0  0  0  0  0  0  0  0
  1  2  2  0
  2  3  1  0
  3  4  2  0
  4  5  1  0
  5  6  2  0
  6  7  1  0
  7  8  2  0
  8  9  1  0
  9 10  2  0
 10 11  1  0
 11 12  1  0
 12 13  2  0
 13 14  1  0
 14 15  2  0
 15 16  1  0
 16 17  2  0
 11 18  2  0
 18 19  1  0
 19 20  1  0
 20 21  1  0
 21 22  1  0
 22 23  2  0
 23 24  1  0
 24 25  2  0
 25 26  1  0
 26 27  2  0
 19 28  2  0
  4 29  1  0
 29 30  2  0
 30  1  1  0
 28  5  1  0
 28  9  1  0
 17 12  1  0
 27 22  1  0
  1 31  1  0
  2 32  1  0
  3 33  1  0
  6 34  1  0
  7 35  1  0
  8 36  1  0
 13 37  1  0
 15 38  1  0
 17 39  1  0
 20 40  1  0
 21 41  1  0
 21 42  1  0
 23 43  1  0
 24 44  1  0
 25 45  1  0
 26 46  1  0
 29 47  1  0
 30 48  1  0
M  END
>  <meeko>  (1) 
{"is_sidechain": false}

>  <smiles>  (1) 
c1ccc(-c2cccc3nc(-c4cncnc4)nc(NCc4ccccn4)c23)cc1

>  <vina_score>  (1) 
-7.433

>  <job_id>  (1) 
98ddad17abcf336d

$$$$

     RDKit          3D

 59 62  0  0  0  0  0  0  0  0999 V2000
   61.6780   79.5950   34.0200 C   0  0  0  0  0  0  0  0  0  0  0  0
   61.0200   80.6770   34.4690 C   0  0  0  0  0  0  0  0  0  0  0  0
   59.6850   80.6070   35.1420 C   0  0  0  0  0  0  0  0  0  0  0  0
   61.5340   82.0530   34.2120 C   0  0  0  0  0  0  0  0  0  0  0  0
   61.4060   82.9690   35.0140 O   0  0  0  0  0  0  0  0  0  0  0  0
   62.2880   82.2570   33.0450 N   0  0  0  0  0  0  0  0  0  0  0  0
   63.6530   82.1250   32.8920 C   0  0  0  0  0  0  0  0  0  0  0  0
   64.0780   82.5320   31.7180 N   0  0  0  0  0  0  0  0  0  0  0  0
   62.9510   82.9210   31.0520 C   0  0  0  0  0  0  0  0  0  0  0  0
   61.8250   82.7570   31.8340 C   0  0  0  0  0  0  0  0  0  0  0  0
   60.4390   82.9320   31.4790 C   0  0  0  0  0  0  0  0  0  0  0  0
   59.8200   83.9450   31.7910 O   0  0  0  0  0  0  0  0  0  0  0  0
   59.7160   81.8310   30.7730 C   0  0  0  0  0  0  0  0  0  0  0  0
   59.7110   81.7100   29.3810 C   0  0  0  0  0  0  0  0  0  0  0  0
   59.0200   80.6550   28.7700 C   0  0  0  0  0  0  0  0  0  0  0  0
   58.3060   79.7090   29.5240 C   0  0  0  0  0  0  0  0  0  0  0  0
   57.6810   78.6550   28.8510 N   0  0  0  0  0  0  0  0  0  0  0  0
   56.3560   78.3660   28.5420 C   0  0  0  0  0  0  0  0  0  0  0  0
   55.7210   77.5840   29.4330 N   0  0  0  0  0  0  0  0  0  0  0  0
   54.4260   77.2920   29.1870 C   0  0  0  0  0  0  0  0  0  0  0  0
   53.7420   77.7610   28.0980 C   0  0  0  0  0  0  0  0  0  0  0  0
   52.4570   77.4420   27.9010 F   0  0  0  0  0  0  0  0  0  0  0  0
   54.4580   78.5710   27.2470 C   0  0  0  0  0  0  0  0  0  0  0  0
   53.8830   79.1260   26.0240 C   0  0  0  0  0  0  0  0  0  0  0  0
   53.3100   78.4520   24.9640 C   0  0  0  0  0  0  0  0  0  0  0  0
   52.9250   79.3030   23.9740 N   0  0  0  0  0  0  0  0  0  0  0  0
   53.2400   80.5120   24.3930 C   0  0  0  0  0  0  0  0  0  0  0  0
   53.0410   81.7320   23.5690 C   0  0  0  0  0  0  0  0  0  0  0  0
   53.7820   80.4680   25.6670 N   0  0  0  0  0  0  0  0  0  0  0  0
   54.1070   81.6100   26.5260 C   0  0  0  0  0  0  0  0  0  0  0  0
   55.4050   82.3200   26.1440 C   0  0  0  0  0  0  0  0  0  0  0  0
   52.9350   82.5840   26.6650 C   0  0  0  0  0  0  0  0  0  0  0  0
   55.7600   78.8720   27.4510 N   0  0  0  0  0  0  0  0  0  0  0  0
   58.3160   79.8490   30.9140 C   0  0  0  0  0  0  0  0  0  0  0  0
   59.0030   80.8990   31.5350 C   0  0  0  0  0  0  0  0  0  0  0  0
   62.6575   79.7099   33.5329 H   0  0  0  0  0  0  0  0  0  0  0  0
   61.2372   78.5943   34.1395 H   0  0  0  0  0  0  0  0  0  0  0  0
   59.8236   80.6143   36.2332 H   0  0  0  0  0  0  0  0  0  0  0  0
   59.0781   81.4746   34.8437 H   0  0  0  0  0  0  0  0  0  0  0  0
   59.1721   79.6807   34.8437 H   0  0  0  0  0  0  0  0  0  0  0  0
   64.3156   81.7212   33.6716 H   0  0  0  0  0  0  0  0  0  0  0  0
   62.9415   83.3143   30.0248 H   0  0  0  0  0  0  0  0  0  0  0  0
   60.2502   82.4438   28.7639 H   0  0  0  0  0  0  0  0  0  0  0  0
   59.0371   80.5655   27.6738 H   0  0  0  0  0  0  0  0  0  0  0  0
   58.2810   77.9860   28.3890 H   0  0  0  0  0  0  0  0  0  0  0  0
   53.8931   76.6438   29.8983 H   0  0  0  0  0  0  0  0  0  0  0  0
   53.1804   77.3604   24.9244 H   0  0  0  0  0  0  0  0  0  0  0  0
   52.8993   82.6008   24.2286 H   0  0  0  0  0  0  0  0  0  0  0  0
   53.9246   81.8938   22.9342 H   0  0  0  0  0  0  0  0  0  0  0  0
   52.1518   81.6047   22.9342 H   0  0  0  0  0  0  0  0  0  0  0  0
   54.2916   81.1800   27.5215 H   0  0  0  0  0  0  0  0  0  0  0  0
   55.9439   82.6148   27.0565 H   0  0  0  0  0  0  0  0  0  0  0  0
   56.0338   81.6402   25.5503 H   0  0  0  0  0  0  0  0  0  0  0  0
   55.1717   83.2161   25.5503 H   0  0  0  0  0  0  0  0  0  0  0  0
   52.7266   82.7572   27.7311 H   0  0  0  0  0  0  0  0  0  0  0  0
   53.1920   83.5382   26.1819 H   0  0  0  0  0  0  0  0  0  0  0  0
   52.0439   82.1567   26.1819 H   0  0  0  0  0  0  0  0  0  0  0  0
   57.7732   79.1195   31.5330 H   0  0  0  0  0  0  0  0  0  0  0  0
   58.9820   80.9920   32.6309 H   0  0  0  0  0  0  0  0  0  0  0  0
  1  2  2  0
  2  3  1  0
  2  4  1  0
  4  5  2  0
  4  6  1  0
  6  7  1  0
  7  8  2  0
  8  9  1  0
  9 10  2  0
 10 11  1  0
 11 12  2  0
 11 13  1  0
 13 14  1  0
 14 15  2  0
 15 16  1  0
 16 17  1  0
 17 18  1  0
 18 19  2  0
 19 20  1  0
 20 21  2  0
 21 22  1  0
 21 23  1  0
 23 24  1  0
 24 25  2  0
 25 26  1  0
 26 27  2  0
 27 28  1  0
 27 29  1  0
 29 30  1  0
 30 31  1  0
 30 32  1  0
 23 33  2  0
 16 34  2  0
 34 35  1  0
 10  6  1  0
 35 13  2  0
 33 18  1  0
 29 24  1  0
  1 36  1  0
  1 37  1  0
  3 38  1  0
  3 39  1  0
  3 40  1  0
  7 41  1  0
  9 42  1  0
 14 43  1  0
 15 44  1  0
 17 45  1  0
 20 46  1  0
 25 47  1  0
 28 48  1  0
 28 49  1  0
 28 50  1  0
 30 51  1  0
 31 52  1  0
 31 53  1  0
 31 54  1  0
 32 55  1  0
 32 56  1  0
 32 57  1  0
 34 58  1  0
 35 59  1  0
M  END
>  <meeko>  (1) 
{"is_sidechain": false}

>  <smiles>  (1) 
C=C(C)C(=O)n1cncc1C(=O)c1ccc(Nc2ncc(F)c(-c3cnc(C)n3C(C)C)n2)cc1

>  <vina_score>  (1) 
-9.210

>  <job_id>  (1) 
9b68402bdd375bfe

$$$$

     RDKit          3D

 66 71  0  0  0  0  0  0  0  0999 V2000
   58.0820   84.2740   32.1380 C   0  0  0  0  0  0  0  0  0  0  0  0
   59.5660   84.2610   31.9930 C   0  0  0  0  0  0  0  0  0  0  0  0
   60.3180   85.3940   32.2040 C   0  0  0  0  0  0  0  0  0  0  0  0
   61.6570   85.4420   32.0860 N   0  0  0  0  0  0  0  0  0  0  0  0
   62.2920   84.3170   31.7350 C   0  0  0  0  0  0  0  0  0  0  0  0
   63.6740   84.2560   31.5890 N   0  0  0  0  0  0  0  0  0  0  0  0
   64.5590   84.5590   30.5490 C   0  0  0  0  0  0  0  0  0  0  0  0
   64.2440   85.3930   29.4720 C   0  0  0  0  0  0  0  0  0  0  0  0
   65.1800   85.6640   28.4660 C   0  0  0  0  0  0  0  0  0  0  0  0
   66.4530   85.1060   28.5240 C   0  0  0  0  0  0  0  0  0  0  0  0
   66.7910   84.2780   29.5880 C   0  0  0  0  0  0  0  0  0  0  0  0
   65.8520   84.0100   30.5890 C   0  0  0  0  0  0  0  0  0  0  0  0
   61.6520   83.1620   31.5030 N   0  0  0  0  0  0  0  0  0  0  0  0
   60.3090   83.1590   31.6180 C   0  0  0  0  0  0  0  0  0  0  0  0
   59.7160   81.8620   31.3200 C   0  0  0  0  0  0  0  0  0  0  0  0
   59.4450   81.2290   30.1140 C   0  0  0  0  0  0  0  0  0  0  0  0
   59.7300   81.7320   28.7450 C   0  0  0  0  0  0  0  0  0  0  0  0
   58.8410   79.9840   30.4700 C   0  0  0  0  0  0  0  0  0  0  0  0
   58.4240   79.1070   29.5380 N   0  0  0  0  0  0  0  0  0  0  0  0
   57.1580   78.8610   29.0120 C   0  0  0  0  0  0  0  0  0  0  0  0
   56.5330   77.7820   29.5300 N   0  0  0  0  0  0  0  0  0  0  0  0
   55.2950   77.4950   29.0740 C   0  0  0  0  0  0  0  0  0  0  0  0
   54.6620   78.2260   28.1050 C   0  0  0  0  0  0  0  0  0  0  0  0
   55.3910   79.3100   27.6450 C   0  0  0  0  0  0  0  0  0  0  0  0
   56.6160   79.6370   28.0680 N   0  0  0  0  0  0  0  0  0  0  0  0
   54.7900   80.1300   26.6150 C   0  0  0  0  0  0  0  0  0  0  0  0
   53.6360   79.7860   25.9370 C   0  0  0  0  0  0  0  0  0  0  0  0
   53.3810   80.8650   25.0450 C   0  0  0  0  0  0  0  0  0  0  0  0
   52.2900   81.0120   24.0670 C   0  0  0  0  0  0  0  0  0  0  0  0
   52.6840   81.2590   22.7740 N   0  0  0  0  0  0  0  0  0  0  0  0
   51.0920   80.9650   24.3340 O   0  0  0  0  0  0  0  0  0  0  0  0
   54.3240   81.8170   25.1850 N   0  0  0  0  0  0  0  0  0  0  0  0
   55.1680   81.3460   26.1300 N   0  0  0  0  0  0  0  0  0  0  0  0
   56.3120   82.1380   26.5170 C   0  0  0  0  0  0  0  0  0  0  0  0
   52.9350   78.4980   26.2130 C   0  0  0  0  0  0  0  0  0  0  0  0
   53.2500   77.9690   27.6380 C   0  0  0  0  0  0  0  0  0  0  0  0
   58.7700   79.8530   31.7950 N   0  0  0  0  0  0  0  0  0  0  0  0
   59.3350   80.9660   32.2850 N   0  0  0  0  0  0  0  0  0  0  0  0
   59.4580   81.1150   33.7170 C   0  0  0  0  0  0  0  0  0  0  0  0
   57.8179   84.2763   33.2058 H   0  0  0  0  0  0  0  0  0  0  0  0
   57.6745   85.1758   31.6576 H   0  0  0  0  0  0  0  0  0  0  0  0
   57.6588   83.3795   31.6576 H   0  0  0  0  0  0  0  0  0  0  0  0
   59.7915   86.3175   32.4866 H   0  0  0  0  0  0  0  0  0  0  0  0
   64.0740   83.8560   32.4250 H   0  0  0  0  0  0  0  0  0  0  0  0
   63.2427   85.8446   29.4137 H   0  0  0  0  0  0  0  0  0  0  0  0
   64.9075   86.3207   27.6267 H   0  0  0  0  0  0  0  0  0  0  0  0
   67.1873   85.3187   27.7330 H   0  0  0  0  0  0  0  0  0  0  0  0
   67.7959   83.8340   29.6426 H   0  0  0  0  0  0  0  0  0  0  0  0
   66.1319   83.3545   31.4268 H   0  0  0  0  0  0  0  0  0  0  0  0
   60.2713   82.6873   28.8107 H   0  0  0  0  0  0  0  0  0  0  0  0
   60.3463   80.9977   28.2055 H   0  0  0  0  0  0  0  0  0  0  0  0
   58.7834   81.8832   28.2055 H   0  0  0  0  0  0  0  0  0  0  0  0
   59.0590   78.4500   29.1120 H   0  0  0  0  0  0  0  0  0  0  0  0
   54.7682   76.6298   29.5029 H   0  0  0  0  0  0  0  0  0  0  0  0
   53.5870   81.6810   22.6170 H   0  0  0  0  0  0  0  0  0  0  0  0
   51.9280   81.5520   22.1690 H   0  0  0  0  0  0  0  0  0  0  0  0
   56.3740   82.1809   27.6144 H   0  0  0  0  0  0  0  0  0  0  0  0
   57.2279   81.6797   26.1157 H   0  0  0  0  0  0  0  0  0  0  0  0
   56.2055   83.1566   26.1157 H   0  0  0  0  0  0  0  0  0  0  0  0
   51.8501   78.6557   26.1226 H   0  0  0  0  0  0  0  0  0  0  0  0
   53.2861   77.7526   25.4842 H   0  0  0  0  0  0  0  0  0  0  0  0
   52.5610   78.4549   28.3446 H   0  0  0  0  0  0  0  0  0  0  0  0
   53.1281   76.8765   27.5993 H   0  0  0  0  0  0  0  0  0  0  0  0
   58.8349   80.3602   34.2190 H   0  0  0  0  0  0  0  0  0  0  0  0
   60.5090   80.9773   34.0110 H   0  0  0  0  0  0  0  0  0  0  0  0
   59.1237   82.1209   34.0110 H   0  0  0  0  0  0  0  0  0  0  0  0
  1  2  1  0
  2  3  2  0
  3  4  1  0
  4  5  2  0
  5  6  1  0
  6  7  1  0
  7  8  2  0
  8  9  1  0
  9 10  2  0
 10 11  1  0
 11 12  2  0
  5 13  1  0
 13 14  2  0
 14 15  1  0
 15 16  2  0
 16 17  1  0
 16 18  1  0
 18 19  1  0
 19 20  1  0
 20 21  2  0
 21 22  1  0
 22 23  2  0
 23 24  1  0
 24 25  2  0
 24 26  1  0
 26 27  2  0
 27 28  1  0
 28 29  1  0
 29 30  1  0
 29 31  2  0
 28 32  2  0
 32 33  1  0
 33 34  1  0
 27 35  1  0
 35 36  1  0
 18 37  2  0
 37 38  1  0
 38 39  1  0
 14  2  1  0
 38 15  1  0
 12  7  1  0
 25 20  1  0
 33 26  1  0
 36 23  1  0
  1 40  1  0
  1 41  1  0
  1 42  1  0
  3 43  1  0
  6 44  1  0
  8 45  1  0
  9 46  1  0
 10 47  1  0
 11 48  1  0
 12 49  1  0
 17 50  1  0
 17 51  1  0
 17 52  1  0
 19 53  1  0
 22 54  1  0
 30 55  1  0
 30 56  1  0
 34 57  1  0
 34 58  1  0
 34 59  1  0
 35 60  1  0
 35 61  1  0
 36 62  1  0
 36 63  1  0
 39 64  1  0
 39 65  1  0
 39 66  1  0
M  END
>  <meeko>  (1) 
{"is_sidechain": false}

>  <smiles>  (1) 
Cc1cnc(Nc2ccccc2)nc1-c1c(C)c(Nc2ncc3c(n2)-c2c(c(C(N)=O)nn2C)CC3)nn1C

>  <vina_score>  (1) 
-9.698

>  <job_id>  (1) 
9ccf9949b0d02772

$$$$

     RDKit          3D

 48 51  0  0  0  0  0  0  0  0999 V2000
   58.9020   80.1800   28.3920 O   0  0  0  0  0  0  0  0  0  0  0  0
   58.6090   80.0120   29.5700 C   0  0  0  0  0  0  0  0  0  0  0  0
   57.4580   79.4300   30.0460 N   0  0  0  0  0  0  0  0  0  0  0  0
   56.4200   78.9170   29.2860 C   0  0  0  0  0  0  0  0  0  0  0  0
   55.8320   77.8400   29.8300 N   0  0  0  0  0  0  0  0  0  0  0  0
   54.8170   77.2920   29.1340 C   0  0  0  0  0  0  0  0  0  0  0  0
   54.3800   77.7690   27.9190 C   0  0  0  0  0  0  0  0  0  0  0  0
   55.0370   78.8930   27.4490 C   0  0  0  0  0  0  0  0  0  0  0  0
   56.0620   79.4600   28.1190 N   0  0  0  0  0  0  0  0  0  0  0  0
   54.6620   79.5040   26.1150 C   0  0  0  0  0  0  0  0  0  0  0  0
   53.3560   79.0540   25.6180 N   0  0  0  0  0  0  0  0  0  0  0  0
   52.9340   79.6970   24.4560 C   0  0  0  0  0  0  0  0  0  0  0  0
   52.3730   79.1110   23.5370 O   0  0  0  0  0  0  0  0  0  0  0  0
   53.3160   81.1240   24.2430 C   0  0  0  0  0  0  0  0  0  0  0  0
   52.5200   82.0280   23.3360 C   0  0  0  0  0  0  0  0  0  0  0  0
   52.6210   82.3350   24.8060 C   0  0  0  0  0  0  0  0  0  0  0  0
   53.1810   77.6090   25.7240 C   0  0  0  0  0  0  0  0  0  0  0  0
   53.2230   77.1620   27.1860 C   0  0  0  0  0  0  0  0  0  0  0  0
   59.5400   80.4580   30.7070 C   0  0  0  0  0  0  0  0  0  0  0  0
   60.3210   81.7330   30.3210 C   0  0  0  0  0  0  0  0  0  0  0  0
   59.7410   82.9860   30.9700 C   0  0  0  0  0  0  0  0  0  0  0  0
   59.7500   82.8990   32.4950 C   0  0  0  0  0  0  0  0  0  0  0  0
   59.5520   81.4780   33.0230 C   0  0  0  0  0  0  0  0  0  0  0  0
   58.7780   80.6130   32.0360 C   0  0  0  0  0  0  0  0  0  0  0  0
   57.2930   79.3490   31.0360 H   0  0  0  0  0  0  0  0  0  0  0  0
   54.3091   76.4144   29.5605 H   0  0  0  0  0  0  0  0  0  0  0  0
   54.6351   80.5980   26.2270 H   0  0  0  0  0  0  0  0  0  0  0  0
   55.4181   79.1812   25.3842 H   0  0  0  0  0  0  0  0  0  0  0  0
   54.3490   80.7526   24.3134 H   0  0  0  0  0  0  0  0  0  0  0  0
   53.0367   82.6661   22.6040 H   0  0  0  0  0  0  0  0  0  0  0  0
   51.6920   81.8845   22.6262 H   0  0  0  0  0  0  0  0  0  0  0  0
   53.2111   83.1980   25.1480 H   0  0  0  0  0  0  0  0  0  0  0  0
   51.8965   82.5092   25.6151 H   0  0  0  0  0  0  0  0  0  0  0  0
   52.2094   77.3307   25.2897 H   0  0  0  0  0  0  0  0  0  0  0  0
   53.9995   77.1142   25.1807 H   0  0  0  0  0  0  0  0  0  0  0  0
   52.2886   77.4681   27.6792 H   0  0  0  0  0  0  0  0  0  0  0  0
   53.3402   76.0685   27.2065 H   0  0  0  0  0  0  0  0  0  0  0  0
   60.2839   79.6634   30.8660 H   0  0  0  0  0  0  0  0  0  0  0  0
   61.3663   81.6189   30.6439 H   0  0  0  0  0  0  0  0  0  0  0  0
   60.2485   81.8547   29.2302 H   0  0  0  0  0  0  0  0  0  0  0  0
   60.3397   83.8554   30.6606 H   0  0  0  0  0  0  0  0  0  0  0  0
   58.6956   83.0847   30.6422 H   0  0  0  0  0  0  0  0  0  0  0  0
   60.7171   83.2751   32.8600 H   0  0  0  0  0  0  0  0  0  0  0  0
   58.9052   83.5017   32.8597 H   0  0  0  0  0  0  0  0  0  0  0  0
   60.5377   81.0227   33.1994 H   0  0  0  0  0  0  0  0  0  0  0  0
   58.9722   81.5364   33.9559 H   0  0  0  0  0  0  0  0  0  0  0  0
   58.6227   79.6176   32.4777 H   0  0  0  0  0  0  0  0  0  0  0  0
   57.8150   81.1023   31.8279 H   0  0  0  0  0  0  0  0  0  0  0  0
  1  2  2  0
  2  3  1  0
  3  4  1  0
  4  5  2  0
  5  6  1  0
  6  7  2  0
  7  8  1  0
  8  9  2  0
  8 10  1  0
 10 11  1  0
 11 12  1  0
 12 13  2  0
 12 14  1  0
 14 15  1  0
 15 16  1  0
 11 17  1  0
 17 18  1  0
  2 19  1  0
 19 20  1  0
 20 21  1  0
 21 22  1  0
 22 23  1  0
 23 24  1  0
  9  4  1  0
 16 14  1  0
 24 19  1  0
 18  7  1  0
  3 25  1  0
  6 26  1  0
 10 27  1  0
 10 28  1  0
 14 29  1  0
 15 30  1  0
 15 31  1  0
 16 32  1  0
 16 33  1  0
 17 34  1  0
 17 35  1  0
 18 36  1  0
 18 37  1  0
 19 38  1  0
 20 39  1  0
 20 40  1  0
 21 41  1  0
 21 42  1  0
 22 43  1  0
 22 44  1  0
 23 45  1  0
 23 46  1  0
 24 47  1  0
 24 48  1  0
M  END
>  <meeko>  (1) 
{"is_sidechain": false}

>  <smiles>  (1) 
O=C(Nc1ncc2c(n1)CN(C(=O)C1CC1)CC2)C1CCCCC1

>  <vina_score>  (1) 
-7.869

>  <job_id>  (1) 
a061a398e05fd9cf

$$$$

     RDKit          3D

 40 41  0  0  0  0  0  0  0  0999 V2000
   59.6840   81.3590   29.2510 C   0  0  0  0  0  0  0  0  0  0  0  0
   58.8750   80.0750   29.1580 C   0  0  0  0  0  0  0  0  0  0  0  0
   58.0860   80.0460   27.9410 N   0  0  0  0  0  0  0  0  0  0  0  0
   56.8420   79.4470   28.0210 C   0  0  0  0  0  0  0  0  0  0  0  0
   56.4830   78.7500   29.1120 N   0  0  0  0  0  0  0  0  0  0  0  0
   55.2400   78.2230   29.1260 C   0  0  0  0  0  0  0  0  0  0  0  0
   54.3600   78.3500   28.0850 C   0  0  0  0  0  0  0  0  0  0  0  0
   53.1380   77.8070   28.1360 F   0  0  0  0  0  0  0  0  0  0  0  0
   54.8270   79.0530   26.9990 C   0  0  0  0  0  0  0  0  0  0  0  0
   54.0080   79.3060   25.8280 C   0  0  0  0  0  0  0  0  0  0  0  0
   53.5410   78.3570   24.9440 C   0  0  0  0  0  0  0  0  0  0  0  0
   52.9350   78.9320   23.8750 N   0  0  0  0  0  0  0  0  0  0  0  0
   53.0010   80.2320   24.0770 C   0  0  0  0  0  0  0  0  0  0  0  0
   52.5640   81.2050   23.0430 C   0  0  0  0  0  0  0  0  0  0  0  0
   53.5340   80.5230   25.3360 N   0  0  0  0  0  0  0  0  0  0  0  0
   53.6130   81.8580   25.9830 C   0  0  0  0  0  0  0  0  0  0  0  0
   55.0210   82.4460   25.7700 C   0  0  0  0  0  0  0  0  0  0  0  0
   53.3280   81.8210   27.5070 C   0  0  0  0  0  0  0  0  0  0  0  0
   52.5600   82.8510   25.4260 C   0  0  0  0  0  0  0  0  0  0  0  0
   56.0560   79.6140   26.9500 N   0  0  0  0  0  0  0  0  0  0  0  0
   59.8453   81.6150   30.3086 H   0  0  0  0  0  0  0  0  0  0  0  0
   60.6559   81.2167   28.7559 H   0  0  0  0  0  0  0  0  0  0  0  0
   59.1361   82.1743   28.7559 H   0  0  0  0  0  0  0  0  0  0  0  0
   59.5618   79.2158   29.1623 H   0  0  0  0  0  0  0  0  0  0  0  0
   58.1930   80.0267   30.0197 H   0  0  0  0  0  0  0  0  0  0  0  0
   58.5440   79.6410   27.1320 H   0  0  0  0  0  0  0  0  0  0  0  0
   54.9187   77.6643   30.0174 H   0  0  0  0  0  0  0  0  0  0  0  0
   53.6463   77.2714   25.0871 H   0  0  0  0  0  0  0  0  0  0  0  0
   52.1604   82.1036   23.5324 H   0  0  0  0  0  0  0  0  0  0  0  0
   53.4233   81.4839   22.4155 H   0  0  0  0  0  0  0  0  0  0  0  0
   51.7847   80.7479   22.4155 H   0  0  0  0  0  0  0  0  0  0  0  0
   55.4884   82.6412   26.7464 H   0  0  0  0  0  0  0  0  0  0  0  0
   55.6361   81.7295   25.2057 H   0  0  0  0  0  0  0  0  0  0  0  0
   54.9438   83.3871   25.2057 H   0  0  0  0  0  0  0  0  0  0  0  0
   54.2713   81.9435   28.0595 H   0  0  0  0  0  0  0  0  0  0  0  0
   52.6397   82.6373   27.7712 H   0  0  0  0  0  0  0  0  0  0  0  0
   52.8709   80.8560   27.7712 H   0  0  0  0  0  0  0  0  0  0  0  0
   52.0400   83.3413   26.2622 H   0  0  0  0  0  0  0  0  0  0  0  0
   53.0627   83.6114   24.8104 H   0  0  0  0  0  0  0  0  0  0  0  0
   51.8303   82.3046   24.8104 H   0  0  0  0  0  0  0  0  0  0  0  0
  1  2  1  0
  2  3  1  0
  3  4  1  0
  4  5  2  0
  5  6  1  0
  6  7  2  0
  7  8  1  0
  7  9  1  0
  9 10  1  0
 10 11  2  0
 11 12  1  0
 12 13  2  0
 13 14  1  0
 13 15  1  0
 15 16  1  0
 16 17  1  0
 16 18  1  0
 16 19  1  0
  9 20  2  0
 20  4  1  0
 15 10  1  0
  1 21  1  0
  1 22  1  0
  1 23  1  0
  2 24  1  0
  2 25  1  0
  3 26  1  0
  6 27  1  0
 11 28  1  0
 14 29  1  0
 14 30  1  0
 14 31  1  0
 17 32  1  0
 17 33  1  0
 17 34  1  0
 18 35  1  0
 18 36  1  0
 18 37  1  0
 19 38  1  0
 19 39  1  0
 19 40  1  0
M  END
>  <meeko>  (1) 
{"is_sidechain": false}

>  <smiles>  (1) 
CCNc1ncc(F)c(-c2cnc(C)n2C(C)(C)C)n1

>  <vina_score>  (1) 
-7.060

>  <job_id>  (1) 
a46b4d8b680f77c4

$$$$

     RDKit          3D

 57 58  0  0  0  0  0  0  0  0999 V2000
   60.9650   85.9380   31.5080 C   0  0  0  0  0  0  0  0  0  0  0  0
   59.7620   85.0440   31.8410 C   0  0  2  0  0  0  0  0  0  0  0  0
   58.6830   85.8450   32.6120 C   0  0  1  0  0  0  0  0  0  0  0  0
   58.3820   87.2280   32.0400 C   0  0  0  0  0  0  0  0  0  0  0  0
   57.4350   85.1060   32.8300 N   0  0  0  0  0  0  0  0  0  0  0  0
   60.3410   83.5240   32.6250 S   0  0  0  0  0  0  0  0  0  0  0  0
   59.6860   83.3830   34.0200 N   0  0  0  0  0  0  0  0  0  0  0  0
   61.7790   83.4410   32.4410 O   0  0  0  0  0  0  0  0  0  0  0  0
   59.6890   82.2120   31.5980 C   0  0  0  0  0  0  0  0  0  0  0  0
   58.8220   81.2500   32.1120 C   0  0  0  0  0  0  0  0  0  0  0  0
   58.3490   80.2320   31.2760 C   0  0  0  0  0  0  0  0  0  0  0  0
   58.7410   80.1420   29.9290 C   0  0  0  0  0  0  0  0  0  0  0  0
   58.2130   79.1070   29.1500 N   0  0  0  0  0  0  0  0  0  0  0  0
   56.9630   78.8560   28.5920 C   0  0  0  0  0  0  0  0  0  0  0  0
   56.2190   77.8030   28.9520 N   0  0  0  0  0  0  0  0  0  0  0  0
   55.0270   77.6400   28.3460 C   0  0  0  0  0  0  0  0  0  0  0  0
   54.5420   78.4910   27.3850 C   0  0  0  0  0  0  0  0  0  0  0  0
   53.2310   78.2890   26.7280 C   0  0  0  0  0  0  0  0  0  0  0  0
   53.3310   78.0900   25.3840 F   0  0  0  0  0  0  0  0  0  0  0  0
   52.3810   79.3370   26.8950 F   0  0  0  0  0  0  0  0  0  0  0  0
   52.5610   77.2000   27.2050 F   0  0  0  0  0  0  0  0  0  0  0  0
   55.3660   79.5450   27.0890 C   0  0  0  0  0  0  0  0  0  0  0  0
   54.9420   80.4140   26.1060 O   0  0  0  0  0  0  0  0  0  0  0  0
   54.5410   81.7290   26.5320 C   0  0  2  0  0  0  0  0  0  0  0  0
   53.2850   82.0690   25.7290 C   0  0  0  0  0  0  0  0  0  0  0  0
   55.6750   82.7350   26.2360 C   0  0  1  0  0  0  0  0  0  0  0  0
   55.1940   84.1770   26.1440 C   0  0  0  0  0  0  0  0  0  0  0  0
   56.6850   82.6720   27.2480 O   0  0  0  0  0  0  0  0  0  0  0  0
   56.5680   79.7380   27.6620 N   0  0  0  0  0  0  0  0  0  0  0  0
   59.6280   81.1100   29.4450 C   0  0  0  0  0  0  0  0  0  0  0  0
   60.1090   82.1330   30.2690 C   0  0  0  0  0  0  0  0  0  0  0  0
   61.4328   86.2857   32.4409 H   0  0  0  0  0  0  0  0  0  0  0  0
   61.6977   85.3635   30.9223 H   0  0  0  0  0  0  0  0  0  0  0  0
   60.6263   86.8053   30.9223 H   0  0  0  0  0  0  0  0  0  0  0  0
   59.2419   84.7156   30.9290 H   0  0  0  0  0  0  0  0  0  0  0  0
   59.1589   86.0005   33.5915 H   0  0  0  0  0  0  0  0  0  0  0  0
   58.2271   87.9399   32.8642 H   0  0  0  0  0  0  0  0  0  0  0  0
   59.2286   87.5613   31.4218 H   0  0  0  0  0  0  0  0  0  0  0  0
   57.4734   87.1793   31.4218 H   0  0  0  0  0  0  0  0  0  0  0  0
   57.1610   85.1450   33.8100 H   0  0  0  0  0  0  0  0  0  0  0  0
   56.6810   85.5850   32.3150 H   0  0  0  0  0  0  0  0  0  0  0  0
   60.1130   82.5990   34.5190 H   0  0  0  0  0  0  0  0  0  0  0  0
   58.5117   81.2903   33.1666 H   0  0  0  0  0  0  0  0  0  0  0  0
   57.6531   79.4837   31.6832 H   0  0  0  0  0  0  0  0  0  0  0  0
   58.8500   78.3740   28.8720 H   0  0  0  0  0  0  0  0  0  0  0  0
   54.4089   76.7780   28.6373 H   0  0  0  0  0  0  0  0  0  0  0  0
   54.3369   81.7716   27.6121 H   0  0  0  0  0  0  0  0  0  0  0  0
   52.4581   82.2928   26.4190 H   0  0  0  0  0  0  0  0  0  0  0  0
   53.4814   82.9463   25.0952 H   0  0  0  0  0  0  0  0  0  0  0  0
   53.0120   81.2124   25.0952 H   0  0  0  0  0  0  0  0  0  0  0  0
   56.0777   82.4408   25.2555 H   0  0  0  0  0  0  0  0  0  0  0  0
   55.0584   84.5836   27.1570 H   0  0  0  0  0  0  0  0  0  0  0  0
   55.9401   84.7787   25.6042 H   0  0  0  0  0  0  0  0  0  0  0  0
   54.2361   84.2103   25.6042 H   0  0  0  0  0  0  0  0  0  0  0  0
   57.3790   83.3080   26.9940 H   0  0  0  0  0  0  0  0  0  0  0  0
   59.9537   81.0656   28.3952 H   0  0  0  0  0  0  0  0  0  0  0  0
   60.8173   82.8742   29.8703 H   0  0  0  0  0  0  0  0  0  0  0  0
  1  2  1  0
  2  3  1  0
  3  4  1  0
  3  5  1  0
  2  6  1  0
  6  7  2  0
  6  8  2  0
  6  9  1  0
  9 10  1  0
 10 11  2  0
 11 12  1  0
 12 13  1  0
 13 14  1  0
 14 15  2  0
 15 16  1  0
 16 17  2  0
 17 18  1  0
 18 19  1  0
 18 20  1  0
 18 21  1  0
 17 22  1  0
 22 23  1  0
 23 24  1  0
 24 25  1  0
 24 26  1  0
 26 27  1  0
 26 28  1  0
 22 29  2  0
 12 30  2  0
 30 31  1  0
 31  9  2  0
 29 14  1  0
  1 32  1  0
  1 33  1  0
  1 34  1  0
  2 35  1  6
  3 36  1  1
  4 37  1  0
  4 38  1  0
  4 39  1  0
  5 40  1  0
  5 41  1  0
  7 42  1  0
 10 43  1  0
 11 44  1  0
 13 45  1  0
 16 46  1  0
 24 47  1  1
 25 48  1  0
 25 49  1  0
 25 50  1  0
 26 51  1  6
 27 52  1  0
 27 53  1  0
 27 54  1  0
 28 55  1  0
 30 56  1  0
 31 57  1  0
M  END
>  <meeko>  (1) 
{"is_sidechain": false}

>  <smiles>  (1) 
C[C@H]([C@@H](C)N)S(=N)(=O)c1ccc(Nc2ncc(C(F)(F)F)c(O[C@H](C)[C@@H](C)O)n2)cc1

>  <vina_score>  (1) 
-8.150

>  <job_id>  (1) 
a8f1ebbf7cabfecd

$$$$

     RDKit          3D

 58 61  0  0  0  0  0  0  0  0999 V2000
   51.1300   76.4820   28.5070 C   0  0  0  0  0  0  0  0  0  0  0  0
   52.3130   75.6440   28.0180 C   0  0  0  0  0  0  0  0  0  0  0  0
   52.1890   75.3570   26.5200 C   0  0  0  0  0  0  0  0  0  0  0  0
   53.6290   76.2770   28.3610 C   0  0  0  0  0  0  0  0  0  0  0  0
   54.6570   75.7320   29.1790 C   0  0  0  0  0  0  0  0  0  0  0  0
   55.7210   76.5320   29.2950 N   0  0  0  0  0  0  0  0  0  0  0  0
   55.3570   77.6050   28.5580 N   0  0  0  0  0  0  0  0  0  0  0  0
   56.1680   78.7340   28.3600 C   0  0  0  0  0  0  0  0  0  0  0  0
   57.3930   78.7600   28.9910 N   0  0  0  0  0  0  0  0  0  0  0  0
   58.4700   79.6120   28.5490 C   0  0  0  0  0  0  0  0  0  0  0  0
   59.0010   80.3990   29.7200 C   0  0  0  0  0  0  0  0  0  0  0  0
   58.5590   80.1230   31.0200 C   0  0  0  0  0  0  0  0  0  0  0  0
   59.0590   80.8420   32.1080 C   0  0  0  0  0  0  0  0  0  0  0  0
   60.0460   81.8140   31.9290 C   0  0  0  0  0  0  0  0  0  0  0  0
   60.4560   82.6110   33.0040 N   0  0  0  0  0  0  0  0  0  0  0  0
   60.4500   82.1240   30.6290 C   0  0  0  0  0  0  0  0  0  0  0  0
   59.9530   81.4090   29.5340 C   0  0  0  0  0  0  0  0  0  0  0  0
   55.7230   79.6850   27.5920 N   0  0  0  0  0  0  0  0  0  0  0  0
   54.4690   79.5330   27.0350 C   0  0  0  0  0  0  0  0  0  0  0  0
   54.0470   80.5620   26.2580 O   0  0  0  0  0  0  0  0  0  0  0  0
   52.8760   80.4250   25.4180 C   0  0  0  0  0  0  0  0  0  0  0  0
   52.2820   81.8250   25.2190 C   0  0  0  0  0  0  0  0  0  0  0  0
   52.8360   82.4820   23.9580 C   0  0  0  0  0  0  0  0  0  0  0  0
   52.5600   81.7190   22.7320 N   0  0  0  0  0  0  0  0  0  0  0  0
   51.4390   82.2700   21.9770 C   0  0  0  0  0  0  0  0  0  0  0  0
   52.3860   80.2780   22.9540 C   0  0  0  0  0  0  0  0  0  0  0  0
   53.2680   79.7700   24.0870 C   0  0  0  0  0  0  0  0  0  0  0  0
   53.6770   78.5130   27.1790 N   0  0  0  0  0  0  0  0  0  0  0  0
   54.1310   77.5020   27.9650 C   0  0  0  0  0  0  0  0  0  0  0  0
   51.1170   76.4912   29.6069 H   0  0  0  0  0  0  0  0  0  0  0  0
   51.2304   77.5115   28.1328 H   0  0  0  0  0  0  0  0  0  0  0  0
   50.1921   76.0457   28.1328 H   0  0  0  0  0  0  0  0  0  0  0  0
   52.2846   74.6807   28.5484 H   0  0  0  0  0  0  0  0  0  0  0  0
   51.7566   74.3563   26.3730 H   0  0  0  0  0  0  0  0  0  0  0  0
   51.5361   76.1104   26.0551 H   0  0  0  0  0  0  0  0  0  0  0  0
   53.1851   75.3980   26.0551 H   0  0  0  0  0  0  0  0  0  0  0  0
   54.5834   74.7493   29.6677 H   0  0  0  0  0  0  0  0  0  0  0  0
   57.6720   77.8710   29.4070 H   0  0  0  0  0  0  0  0  0  0  0  0
   59.2763   78.9945   28.1264 H   0  0  0  0  0  0  0  0  0  0  0  0
   58.0975   80.3049   27.7802 H   0  0  0  0  0  0  0  0  0  0  0  0
   57.8116   79.3331   31.1856 H   0  0  0  0  0  0  0  0  0  0  0  0
   58.6711   80.6405   33.1174 H   0  0  0  0  0  0  0  0  0  0  0  0
   60.9520   82.1000   33.7270 H   0  0  0  0  0  0  0  0  0  0  0  0
   59.7170   83.1950   33.3840 H   0  0  0  0  0  0  0  0  0  0  0  0
   61.1681   82.9407   30.4637 H   0  0  0  0  0  0  0  0  0  0  0  0
   60.3123   81.6416   28.5207 H   0  0  0  0  0  0  0  0  0  0  0  0
   52.1195   79.7764   25.8838 H   0  0  0  0  0  0  0  0  0  0  0  0
   51.1887   81.7422   25.1305 H   0  0  0  0  0  0  0  0  0  0  0  0
   52.5535   82.4464   26.0851 H   0  0  0  0  0  0  0  0  0  0  0  0
   52.3835   83.4795   23.8571 H   0  0  0  0  0  0  0  0  0  0  0  0
   53.9291   82.5305   24.0708 H   0  0  0  0  0  0  0  0  0  0  0  0
   50.6759   82.6451   22.6749 H   0  0  0  0  0  0  0  0  0  0  0  0
   51.7943   83.0961   21.3435 H   0  0  0  0  0  0  0  0  0  0  0  0
   51.0019   81.4841   21.3435 H   0  0  0  0  0  0  0  0  0  0  0  0
   51.3336   80.0811   23.2063 H   0  0  0  0  0  0  0  0  0  0  0  0
   52.6765   79.7524   22.0324 H   0  0  0  0  0  0  0  0  0  0  0  0
   53.1516   78.6796   24.1735 H   0  0  0  0  0  0  0  0  0  0  0  0
   54.3137   80.0267   23.8621 H   0  0  0  0  0  0  0  0  0  0  0  0
  1  2  1  0
  2  3  1  0
  2  4  1  0
  4  5  1  0
  5  6  2  0
  6  7  1  0
  7  8  1  0
  8  9  1  0
  9 10  1  0
 10 11  1  0
 11 12  1  0
 12 13  2  0
 13 14  1  0
 14 15  1  0
 14 16  2  0
 16 17  1  0
  8 18  2  0
 18 19  1  0
 19 20  1  0
 20 21  1  0
 21 22  1  0
 22 23  1  0
 23 24  1  0
 24 25  1  0
 24 26  1  0
 26 27  1  0
 19 28  2  0
 28 29  1  0
 29  4  2  0
 29  7  1  0
 17 11  2  0
 27 21  1  0
  1 30  1  0
  1 31  1  0
  1 32  1  0
  2 33  1  0
  3 34  1  0
  3 35  1  0
  3 36  1  0
  5 37  1  0
  9 38  1  0
 10 39  1  0
 10 40  1  0
 12 41  1  0
 13 42  1  0
 15 43  1  0
 15 44  1  0
 16 45  1  0
 17 46  1  0
 21 47  1  0
 22 48  1  0
 22 49  1  0
 23 50  1  0
 23 51  1  0
 25 52  1  0
 25 53  1  0
 25 54  1  0
 26 55  1  0
 26 56  1  0
 27 57  1  0
 27 58  1  0
M  END
>  <meeko>  (1) 
{"is_sidechain": false}

>  <smiles>  (1) 
CC(C)c1cnn2c(NCc3ccc(N)cc3)nc(OC3CCN(C)CC3)nc12

>  <vina_score>  (1) 
-9.393

>  <job_id>  (1) 
a9eac351b8671a00

$$$$

     RDKit          3D

 34 35  0  0  0  0  0  0  0  0999 V2000
   57.0600   79.4830   30.2810 C   0  0  0  0  0  0  0  0  0  0  0  0
   57.3170   79.0880   29.0240 C   0  0  0  0  0  0  0  0  0  0  0  0
   58.5600   78.3560   28.6190 C   0  0  0  0  0  0  0  0  0  0  0  0
   56.3480   79.3860   27.9550 C   0  0  0  0  0  0  0  0  0  0  0  0
   56.6450   80.4360   27.0750 C   0  0  0  0  0  0  0  0  0  0  0  0
   55.7650   80.7730   26.0410 C   0  0  0  0  0  0  0  0  0  0  0  0
   54.5620   80.0760   25.8570 C   0  0  0  0  0  0  0  0  0  0  0  0
   53.6360   80.4330   24.7680 C   0  0  0  0  0  0  0  0  0  0  0  0
   53.3000   81.7750   24.5170 C   0  0  0  0  0  0  0  0  0  0  0  0
   52.4180   82.1190   23.4880 C   0  0  0  0  0  0  0  0  0  0  0  0
   51.8700   81.1140   22.6900 C   0  0  0  0  0  0  0  0  0  0  0  0
   50.7450   81.5310   21.3850 S   0  0  0  0  0  0  0  0  0  0  0  0
   49.2790   81.0020   22.0240 N   0  0  0  0  0  0  0  0  0  0  0  0
   51.0090   80.6690   20.2560 O   0  0  0  0  0  0  0  0  0  0  0  0
   50.6900   82.9690   21.2700 O   0  0  0  0  0  0  0  0  0  0  0  0
   52.1770   79.7720   22.9250 C   0  0  0  0  0  0  0  0  0  0  0  0
   53.0580   79.4390   23.9570 C   0  0  0  0  0  0  0  0  0  0  0  0
   54.2660   79.0290   26.7440 C   0  0  0  0  0  0  0  0  0  0  0  0
   55.1440   78.6870   27.7820 C   0  0  0  0  0  0  0  0  0  0  0  0
   54.6320   77.2530   28.9220 Br  0  0  0  0  0  0  0  0  0  0  0  0
   56.1260   80.0173   30.5095 H   0  0  0  0  0  0  0  0  0  0  0  0
   57.7834   79.2724   31.0825 H   0  0  0  0  0  0  0  0  0  0  0  0
   59.1057   78.0346   29.5184 H   0  0  0  0  0  0  0  0  0  0  0  0
   58.2877   77.4741   28.0206 H   0  0  0  0  0  0  0  0  0  0  0  0
   59.1992   79.0219   28.0206 H   0  0  0  0  0  0  0  0  0  0  0  0
   57.5805   81.0013   27.1989 H   0  0  0  0  0  0  0  0  0  0  0  0
   56.0210   81.5987   25.3608 H   0  0  0  0  0  0  0  0  0  0  0  0
   53.7385   82.5678   25.1408 H   0  0  0  0  0  0  0  0  0  0  0  0
   52.1583   83.1728   23.3091 H   0  0  0  0  0  0  0  0  0  0  0  0
   49.2310   81.2740   23.0060 H   0  0  0  0  0  0  0  0  0  0  0  0
   48.4690   81.3270   21.4970 H   0  0  0  0  0  0  0  0  0  0  0  0
   51.7288   78.9835   22.3026 H   0  0  0  0  0  0  0  0  0  0  0  0
   53.3038   78.3823   24.1385 H   0  0  0  0  0  0  0  0  0  0  0  0
   53.3283   78.4669   26.6224 H   0  0  0  0  0  0  0  0  0  0  0  0
  1  2  2  0
  2  3  1  0
  2  4  1  0
  4  5  1  0
  5  6  2  0
  6  7  1  0
  7  8  1  0
  8  9  1  0
  9 10  2  0
 10 11  1  0
 11 12  1  0
 12 13  1  0
 12 14  2  0
 12 15  2  0
 11 16  2  0
 16 17  1  0
  7 18  2  0
 18 19  1  0
 19 20  1  0
 19  4  2  0
 17  8  2  0
  1 21  1  0
  1 22  1  0
  3 23  1  0
  3 24  1  0
  3 25  1  0
  5 26  1  0
  6 27  1  0
  9 28  1  0
 10 29  1  0
 13 30  1  0
 13 31  1  0
 16 32  1  0
 17 33  1  0
 18 34  1  0
M  END
>  <meeko>  (1) 
{"is_sidechain": false}

>  <smiles>  (1) 
C=C(C)c1ccc(-c2ccc(S(N)(=O)=O)cc2)cc1Br

>  <vina_score>  (1) 
-7.727

>  <job_id>  (1) 
aae0a6c99e0ba1d9

$$$$

     RDKit          3D

 45 46  0  0  0  0  0  0  0  0999 V2000
   55.9580   77.4620   29.4390 C   0  0  0  0  0  0  0  0  0  0  0  0
   56.6330   78.4610   28.4880 C   0  0  0  0  0  0  0  0  0  0  0  0
   57.5630   79.3770   29.2740 C   0  0  0  0  0  0  0  0  0  0  0  0
   57.4350   79.4850   30.6630 C   0  0  0  0  0  0  0  0  0  0  0  0
   58.2790   80.3290   31.3940 C   0  0  0  0  0  0  0  0  0  0  0  0
   59.2790   81.0960   30.7690 C   0  0  0  0  0  0  0  0  0  0  0  0
   60.1900   82.0100   31.6060 C   0  0  0  0  0  0  0  0  0  0  0  0
   60.7750   81.3260   32.8630 C   0  0  0  0  0  0  0  0  0  0  0  0
   59.3920   83.2400   32.0870 C   0  0  0  0  0  0  0  0  0  0  0  0
   61.3830   82.4820   30.7480 C   0  0  0  0  0  0  0  0  0  0  0  0
   59.3940   80.9820   29.3740 C   0  0  0  0  0  0  0  0  0  0  0  0
   58.5510   80.1390   28.6400 C   0  0  0  0  0  0  0  0  0  0  0  0
   55.6840   79.2320   27.5700 C   0  0  0  0  0  0  0  0  0  0  0  0
   54.3290   78.8470   27.5240 C   0  0  0  0  0  0  0  0  0  0  0  0
   53.4200   79.5040   26.6940 C   0  0  0  0  0  0  0  0  0  0  0  0
   53.8600   80.5640   25.9010 C   0  0  0  0  0  0  0  0  0  0  0  0
   52.7220   81.4060   24.8370 S   0  0  0  0  0  0  0  0  0  0  0  0
   53.3100   80.9810   23.3150 N   0  0  0  0  0  0  0  0  0  0  0  0
   51.4180   80.8080   24.9920 O   0  0  0  0  0  0  0  0  0  0  0  0
   52.9450   82.8280   24.9530 O   0  0  0  0  0  0  0  0  0  0  0  0
   55.2000   80.9550   25.9160 C   0  0  0  0  0  0  0  0  0  0  0  0
   56.1050   80.2910   26.7490 C   0  0  0  0  0  0  0  0  0  0  0  0
   56.1564   77.7556   30.4803 H   0  0  0  0  0  0  0  0  0  0  0  0
   54.8728   77.4602   29.2589 H   0  0  0  0  0  0  0  0  0  0  0  0
   56.3612   76.4545   29.2589 H   0  0  0  0  0  0  0  0  0  0  0  0
   57.2265   77.8609   27.7825 H   0  0  0  0  0  0  0  0  0  0  0  0
   56.6634   78.9008   31.1858 H   0  0  0  0  0  0  0  0  0  0  0  0
   58.1572   80.3942   32.4853 H   0  0  0  0  0  0  0  0  0  0  0  0
   60.3657   81.8046   33.7649 H   0  0  0  0  0  0  0  0  0  0  0  0
   60.5052   80.2596   32.8592 H   0  0  0  0  0  0  0  0  0  0  0  0
   61.8703   81.4271   32.8592 H   0  0  0  0  0  0  0  0  0  0  0  0
   59.3783   83.2611   33.1867 H   0  0  0  0  0  0  0  0  0  0  0  0
   59.8679   84.1567   31.7086 H   0  0  0  0  0  0  0  0  0  0  0  0
   58.3609   83.1790   31.7086 H   0  0  0  0  0  0  0  0  0  0  0  0
   62.2025   82.8062   31.4062 H   0  0  0  0  0  0  0  0  0  0  0  0
   61.7288   81.6529   30.1131 H   0  0  0  0  0  0  0  0  0  0  0  0
   61.0679   83.3232   30.1131 H   0  0  0  0  0  0  0  0  0  0  0  0
   60.1622   81.5671   28.8472 H   0  0  0  0  0  0  0  0  0  0  0  0
   58.6670   80.0746   27.5480 H   0  0  0  0  0  0  0  0  0  0  0  0
   53.9821   78.0142   28.1533 H   0  0  0  0  0  0  0  0  0  0  0  0
   52.3664   79.1891   26.6652 H   0  0  0  0  0  0  0  0  0  0  0  0
   52.6110   81.0650   22.5790 H   0  0  0  0  0  0  0  0  0  0  0  0
   53.6970   80.0360   23.3680 H   0  0  0  0  0  0  0  0  0  0  0  0
   55.5420   81.7814   25.2756 H   0  0  0  0  0  0  0  0  0  0  0  0
   57.1601   80.6017   26.7617 H   0  0  0  0  0  0  0  0  0  0  0  0
  1  2  1  0
  2  3  1  0
  3  4  1  0
  4  5  2  0
  5  6  1  0
  6  7  1  0
  7  8  1  0
  7  9  1  0
  7 10  1  0
  6 11  2  0
 11 12  1  0
  2 13  1  0
 13 14  1  0
 14 15  2  0
 15 16  1  0
 16 17  1  0
 17 18  1  0
 17 19  2  0
 17 20  2  0
 16 21  2  0
 21 22  1  0
 12  3  2  0
 22 13  2  0
  1 23  1  0
  1 24  1  0
  1 25  1  0
  2 26  1  0
  4 27  1  0
  5 28  1  0
  8 29  1  0
  8 30  1  0
  8 31  1  0
  9 32  1  0
  9 33  1  0
  9 34  1  0
 10 35  1  0
 10 36  1  0
 10 37  1  0
 11 38  1  0
 12 39  1  0
 14 40  1  0
 15 41  1  0
 18 42  1  0
 18 43  1  0
 21 44  1  0
 22 45  1  0
M  END
>  <meeko>  (1) 
{"is_sidechain": false}

>  <smiles>  (1) 
CC(c1ccc(C(C)(C)C)cc1)c1ccc(S(N)(=O)=O)cc1

>  <vina_score>  (1) 
-8.516

>  <job_id>  (1) 
ac0d82a572e846a4

$$$$

     RDKit          3D

 45 46  0  0  0  0  0  0  0  0999 V2000
   61.8540   83.9180   31.5070 C   0  0  0  0  0  0  0  0  0  0  0  0
   62.0720   82.5880   31.5230 C   0  0  0  0  0  0  0  0  0  0  0  0
   63.4180   82.1100   31.0210 C   0  0  0  0  0  0  0  0  0  0  0  0
   61.1280   81.6250   31.9470 N   0  0  0  0  0  0  0  0  0  0  0  0
   60.0810   81.2180   31.0780 C   0  0  0  0  0  0  0  0  0  0  0  0
   59.1120   80.3110   31.5220 C   0  0  0  0  0  0  0  0  0  0  0  0
   58.0840   79.8880   30.6740 C   0  0  0  0  0  0  0  0  0  0  0  0
   58.0020   80.3530   29.3510 C   0  0  0  0  0  0  0  0  0  0  0  0
   56.9200   79.9090   28.4560 C   0  0  0  0  0  0  0  0  0  0  0  0
   56.1400   78.7820   28.7690 C   0  0  0  0  0  0  0  0  0  0  0  0
   55.1100   78.3590   27.9230 C   0  0  0  0  0  0  0  0  0  0  0  0
   54.8550   79.0640   26.7470 C   0  0  0  0  0  0  0  0  0  0  0  0
   53.5460   78.5270   25.6790 S   0  0  0  0  0  0  0  0  0  0  0  0
   52.4990   79.8460   25.7450 N   0  0  0  0  0  0  0  0  0  0  0  0
   52.8410   77.4420   26.3220 O   0  0  0  0  0  0  0  0  0  0  0  0
   54.0610   78.4340   24.3350 O   0  0  0  0  0  0  0  0  0  0  0  0
   55.6040   80.1950   26.4180 C   0  0  0  0  0  0  0  0  0  0  0  0
   56.6320   80.6080   27.2690 C   0  0  0  0  0  0  0  0  0  0  0  0
   58.9880   81.2470   28.9060 C   0  0  0  0  0  0  0  0  0  0  0  0
   60.0160   81.6690   29.7560 C   0  0  0  0  0  0  0  0  0  0  0  0
   60.9300   81.2430   33.3770 C   0  0  0  0  0  0  0  0  0  0  0  0
   62.1810   80.6000   33.9770 C   0  0  0  0  0  0  0  0  0  0  0  0
   60.4330   82.3960   34.2540 C   0  0  0  0  0  0  0  0  0  0  0  0
   60.8939   84.3223   31.8602 H   0  0  0  0  0  0  0  0  0  0  0  0
   62.6362   84.5992   31.1408 H   0  0  0  0  0  0  0  0  0  0  0  0
   64.0680   81.8792   31.8778 H   0  0  0  0  0  0  0  0  0  0  0  0
   63.2814   81.2054   30.4102 H   0  0  0  0  0  0  0  0  0  0  0  0
   63.8825   82.8981   30.4102 H   0  0  0  0  0  0  0  0  0  0  0  0
   59.1598   79.9260   32.5513 H   0  0  0  0  0  0  0  0  0  0  0  0
   57.3288   79.1811   31.0481 H   0  0  0  0  0  0  0  0  0  0  0  0
   56.3433   78.2237   29.6947 H   0  0  0  0  0  0  0  0  0  0  0  0
   54.5058   77.4773   28.1830 H   0  0  0  0  0  0  0  0  0  0  0  0
   52.1800   80.1530   24.8270 H   0  0  0  0  0  0  0  0  0  0  0  0
   52.9530   80.6010   26.2630 H   0  0  0  0  0  0  0  0  0  0  0  0
   55.3868   80.7560   25.4971 H   0  0  0  0  0  0  0  0  0  0  0  0
   57.2269   81.4953   27.0066 H   0  0  0  0  0  0  0  0  0  0  0  0
   58.9520   81.6219   27.8725 H   0  0  0  0  0  0  0  0  0  0  0  0
   60.7818   82.3634   29.3801 H   0  0  0  0  0  0  0  0  0  0  0  0
   60.1283   80.4899   33.3675 H   0  0  0  0  0  0  0  0  0  0  0  0
   62.1190   80.6318   35.0748 H   0  0  0  0  0  0  0  0  0  0  0  0
   62.2513   79.5540   33.6439 H   0  0  0  0  0  0  0  0  0  0  0  0
   63.0725   81.1516   33.6439 H   0  0  0  0  0  0  0  0  0  0  0  0
   60.5491   82.1267   35.3142 H   0  0  0  0  0  0  0  0  0  0  0  0
   61.0213   83.3003   34.0389 H   0  0  0  0  0  0  0  0  0  0  0  0
   59.3717   82.5892   34.0389 H   0  0  0  0  0  0  0  0  0  0  0  0
  1  2  2  0
  2  3  1  0
  2  4  1  0
  4  5  1  0
  5  6  1  0
  6  7  2  0
  7  8  1  0
  8  9  1  0
  9 10  1  0
 10 11  2  0
 11 12  1  0
 12 13  1  0
 13 14  1  0
 13 15  2  0
 13 16  2  0
 12 17  2  0
 17 18  1  0
  8 19  2  0
 19 20  1  0
  4 21  1  0
 21 22  1  0
 21 23  1  0
 20  5  2  0
 18  9  2  0
  1 24  1  0
  1 25  1  0
  3 26  1  0
  3 27  1  0
  3 28  1  0
  6 29  1  0
  7 30  1  0
 10 31  1  0
 11 32  1  0
 14 33  1  0
 14 34  1  0
 17 35  1  0
 18 36  1  0
 19 37  1  0
 20 38  1  0
 21 39  1  0
 22 40  1  0
 22 41  1  0
 22 42  1  0
 23 43  1  0
 23 44  1  0
 23 45  1  0
M  END
>  <meeko>  (1) 
{"is_sidechain": false}

>  <smiles>  (1) 
C=C(C)N(c1ccc(-c2ccc(S(N)(=O)=O)cc2)cc1)C(C)C

>  <vina_score>  (1) 
-6.909

>  <job_id>  (1) 
b29edff8e0db0ccd

$$$$

     RDKit          3D

 46 49  0  0  0  0  0  0  0  0999 V2000
   50.9990   82.2810   21.9380 N   0  0  0  0  0  0  0  0  0  0  0  0
   52.2610   81.8050   22.5010 C   0  0  2  0  0  0  0  0  0  0  0  0
   52.1690   80.2950   22.7740 C   0  0  0  0  0  0  0  0  0  0  0  0
   53.1560   79.8670   23.8520 C   0  0  0  0  0  0  0  0  0  0  0  0
   52.8440   80.5380   25.2010 C   0  0  1  0  0  0  0  0  0  0  0  0
   54.0770   80.6820   25.9690 N   0  0  0  0  0  0  0  0  0  0  0  0
   54.5610   79.6990   26.8080 C   0  0  0  0  0  0  0  0  0  0  0  0
   55.9470   79.8770   27.3610 C   0  0  0  0  0  0  0  0  0  0  0  0
   56.4320   78.9430   28.1980 C   0  0  0  0  0  0  0  0  0  0  0  0
   57.6950   78.9310   28.7820 N   0  0  0  0  0  0  0  0  0  0  0  0
   58.3190   79.9140   29.5750 C   0  0  0  0  0  0  0  0  0  0  0  0
   59.3100   80.7850   29.1020 C   0  0  0  0  0  0  0  0  0  0  0  0
   59.9160   81.7150   29.9530 C   0  0  0  0  0  0  0  0  0  0  0  0
   59.5400   81.7760   31.2880 C   0  0  0  0  0  0  0  0  0  0  0  0
   60.1350   82.6750   32.0860 F   0  0  0  0  0  0  0  0  0  0  0  0
   58.5640   80.9180   31.7830 C   0  0  0  0  0  0  0  0  0  0  0  0
   58.0930   80.9820   33.4380 Cl  0  0  0  0  0  0  0  0  0  0  0  0
   57.9570   79.9920   30.9310 C   0  0  0  0  0  0  0  0  0  0  0  0
   55.6140   77.8230   28.4680 N   0  0  0  0  0  0  0  0  0  0  0  0
   55.9350   76.7460   29.2560 N   0  0  0  0  0  0  0  0  0  0  0  0
   54.8490   75.9710   29.1990 C   0  0  0  0  0  0  0  0  0  0  0  0
   53.8470   76.5180   28.3950 C   0  0  0  0  0  0  0  0  0  0  0  0
   52.1850   75.7320   28.0620 Br  0  0  0  0  0  0  0  0  0  0  0  0
   54.3370   77.7100   27.9200 C   0  0  0  0  0  0  0  0  0  0  0  0
   53.8150   78.6630   27.0950 N   0  0  0  0  0  0  0  0  0  0  0  0
   52.1860   81.9220   25.0410 C   0  0  0  0  0  0  0  0  0  0  0  0
   52.6310   82.6150   23.7560 C   0  0  0  0  0  0  0  0  0  0  0  0
   51.0580   82.2900   20.9190 H   0  0  0  0  0  0  0  0  0  0  0  0
   50.2420   81.6390   22.1700 H   0  0  0  0  0  0  0  0  0  0  0  0
   53.0744   81.9601   21.7769 H   0  0  0  0  0  0  0  0  0  0  0  0
   51.1486   80.0522   23.1055 H   0  0  0  0  0  0  0  0  0  0  0  0
   52.4143   79.7585   21.8456 H   0  0  0  0  0  0  0  0  0  0  0  0
   53.1003   78.7753   23.9745 H   0  0  0  0  0  0  0  0  0  0  0  0
   54.1644   80.1750   23.5385 H   0  0  0  0  0  0  0  0  0  0  0  0
   52.1270   79.8899   25.7262 H   0  0  0  0  0  0  0  0  0  0  0  0
   54.7510   81.3310   25.5790 H   0  0  0  0  0  0  0  0  0  0  0  0
   56.5524   80.7535   27.0867 H   0  0  0  0  0  0  0  0  0  0  0  0
   57.9760   77.9790   29.0420 H   0  0  0  0  0  0  0  0  0  0  0  0
   59.6155   80.7365   28.0464 H   0  0  0  0  0  0  0  0  0  0  0  0
   60.6882   82.3960   29.5657 H   0  0  0  0  0  0  0  0  0  0  0  0
   57.1856   79.3150   31.3266 H   0  0  0  0  0  0  0  0  0  0  0  0
   54.7545   75.0101   29.7260 H   0  0  0  0  0  0  0  0  0  0  0  0
   51.0934   81.7965   25.0181 H   0  0  0  0  0  0  0  0  0  0  0  0
   52.4938   82.5478   25.8917 H   0  0  0  0  0  0  0  0  0  0  0  0
   52.1448   83.6000   23.6980 H   0  0  0  0  0  0  0  0  0  0  0  0
   53.7264   82.7105   23.7856 H   0  0  0  0  0  0  0  0  0  0  0  0
  1  2  1  0
  2  3  1  0
  3  4  1  0
  4  5  1  0
  5  6  1  0
  6  7  1  0
  7  8  1  0
  8  9  2  0
  9 10  1  0
 10 11  1  0
 11 12  1  0
 12 13  2  0
 13 14  1  0
 14 15  1  0
 14 16  2  0
 16 17  1  0
 16 18  1  0
  9 19  1  0
 19 20  1  0
 20 21  2  0
 21 22  1  0
 22 23  1  0
 22 24  2  0
 24 25  1  0
  5 26  1  0
 26 27  1  0
 27  2  1  0
 25  7  2  0
 18 11  2  0
 24 19  1  0
  1 28  1  0
  1 29  1  0
  2 30  1  1
  3 31  1  0
  3 32  1  0
  4 33  1  0
  4 34  1  0
  5 35  1  6
  6 36  1  0
  8 37  1  0
 10 38  1  0
 12 39  1  0
 13 40  1  0
 18 41  1  0
 21 42  1  0
 26 43  1  0
 26 44  1  0
 27 45  1  0
 27 46  1  0
M  END
>  <meeko>  (1) 
{"is_sidechain": false}

>  <smiles>  (1) 
N[C@H]1CC[C@H](Nc2cc(Nc3ccc(F)c(Cl)c3)n3ncc(Br)c3n2)CC1

>  <vina_score>  (1) 
-9.327

>  <job_id>  (1) 
b477c8148adc2036

$$$$

     RDKit          3D

 36 37  0  0  0  0  0  0  0  0999 V2000
   54.0160   76.5550   29.0150 C   0  0  0  0  0  0  0  0  0  0  0  0
   54.5740   77.7660   28.3270 C   0  0  0  0  0  0  0  0  0  0  0  0
   53.9100   78.3220   27.2230 C   0  0  0  0  0  0  0  0  0  0  0  0
   54.4290   79.4300   26.5270 C   0  0  0  0  0  0  0  0  0  0  0  0
   53.7220   79.9950   25.3660 C   0  0  0  0  0  0  0  0  0  0  0  0
   53.4360   81.3700   25.2910 C   0  0  0  0  0  0  0  0  0  0  0  0
   52.7640   81.9100   24.1900 C   0  0  0  0  0  0  0  0  0  0  0  0
   52.3770   81.0720   23.1430 C   0  0  0  0  0  0  0  0  0  0  0  0
   51.4980   81.7420   21.7630 S   0  0  0  0  0  0  0  0  0  0  0  0
   49.9080   81.3570   22.1430 N   0  0  0  0  0  0  0  0  0  0  0  0
   51.5790   83.1840   21.8030 O   0  0  0  0  0  0  0  0  0  0  0  0
   51.8190   80.9820   20.5780 O   0  0  0  0  0  0  0  0  0  0  0  0
   52.6380   79.7030   23.1960 C   0  0  0  0  0  0  0  0  0  0  0  0
   53.3100   79.1720   24.3010 C   0  0  0  0  0  0  0  0  0  0  0  0
   55.6450   79.9760   26.9650 C   0  0  0  0  0  0  0  0  0  0  0  0
   56.3100   79.4240   28.0650 C   0  0  0  0  0  0  0  0  0  0  0  0
   57.8600   80.1160   28.5880 S   0  0  0  0  0  0  0  0  0  0  0  0
   57.8460   79.8570   30.3430 C   0  0  0  0  0  0  0  0  0  0  0  0
   58.9170   79.3020   28.0200 O   0  0  0  0  0  0  0  0  0  0  0  0
   57.8100   81.5440   28.3450 O   0  0  0  0  0  0  0  0  0  0  0  0
   55.7930   78.3140   28.7350 C   0  0  0  0  0  0  0  0  0  0  0  0
   54.0786   76.6910   30.1048 H   0  0  0  0  0  0  0  0  0  0  0  0
   52.9644   76.4190   28.7223 H   0  0  0  0  0  0  0  0  0  0  0  0
   54.5958   75.6672   28.7223 H   0  0  0  0  0  0  0  0  0  0  0  0
   52.9584   77.8802   26.8926 H   0  0  0  0  0  0  0  0  0  0  0  0
   53.7463   82.0322   26.1127 H   0  0  0  0  0  0  0  0  0  0  0  0
   52.5421   82.9866   24.1494 H   0  0  0  0  0  0  0  0  0  0  0  0
   49.8760   80.4670   22.6400 H   0  0  0  0  0  0  0  0  0  0  0  0
   49.4750   82.1290   22.6500 H   0  0  0  0  0  0  0  0  0  0  0  0
   52.3174   79.0457   22.3743 H   0  0  0  0  0  0  0  0  0  0  0  0
   53.5203   78.0929   24.3388 H   0  0  0  0  0  0  0  0  0  0  0  0
   56.0771   80.8415   26.4414 H   0  0  0  0  0  0  0  0  0  0  0  0
   57.8985   80.8279   30.8573 H   0  0  0  0  0  0  0  0  0  0  0  0
   56.9186   79.3397   30.6299 H   0  0  0  0  0  0  0  0  0  0  0  0
   58.7123   79.2428   30.6299 H   0  0  0  0  0  0  0  0  0  0  0  0
   56.3423   77.8729   29.5798 H   0  0  0  0  0  0  0  0  0  0  0  0
  1  2  1  0
  2  3  1  0
  3  4  2  0
  4  5  1  0
  5  6  1  0
  6  7  2  0
  7  8  1  0
  8  9  1  0
  9 10  1  0
  9 11  2  0
  9 12  2  0
  8 13  2  0
 13 14  1  0
  4 15  1  0
 15 16  2  0
 16 17  1  0
 17 18  1  0
 17 19  2  0
 17 20  2  0
 16 21  1  0
 21  2  2  0
 14  5  2  0
  1 22  1  0
  1 23  1  0
  1 24  1  0
  3 25  1  0
  6 26  1  0
  7 27  1  0
 10 28  1  0
 10 29  1  0
 13 30  1  0
 14 31  1  0
 15 32  1  0
 18 33  1  0
 18 34  1  0
 18 35  1  0
 21 36  1  0
M  END
>  <meeko>  (1) 
{"is_sidechain": false}

>  <smiles>  (1) 
Cc1cc(-c2ccc(S(N)(=O)=O)cc2)cc(S(C)(=O)=O)c1

>  <vina_score>  (1) 
-7.971

>  <job_id>  (1) 
b78ec2fb1816cf25

$$$$

     RDKit          3D

 33 36  0  0  0  0  0  0  0  0999 V2000
   51.2380   80.8100   24.6020 O   0  0  0  0  0  0  0  0  0  0  0  0
   52.0540   80.5840   23.7160 C   0  0  0  0  0  0  0  0  0  0  0  0
   53.2140   79.8520   23.8510 N   0  0  0  0  0  0  0  0  0  0  0  0
   53.5870   79.2980   25.0620 C   0  0  0  0  0  0  0  0  0  0  0  0
   52.9360   78.2460   25.6600 N   0  0  0  0  0  0  0  0  0  0  0  0
   53.4610   77.8580   26.8400 N   0  0  0  0  0  0  0  0  0  0  0  0
   54.5030   78.6820   27.0340 C   0  0  0  0  0  0  0  0  0  0  0  0
   55.4150   78.7360   28.1020 C   0  0  0  0  0  0  0  0  0  0  0  0
   56.4090   79.7410   27.9920 C   0  0  0  0  0  0  0  0  0  0  0  0
   57.4030   79.8720   29.0610 C   0  0  0  0  0  0  0  0  0  0  0  0
   57.4840   79.4280   30.3680 C   0  0  0  0  0  0  0  0  0  0  0  0
   58.7180   79.8910   30.8860 C   0  0  0  0  0  0  0  0  0  0  0  0
   59.3190   80.5900   29.8680 C   0  0  0  0  0  0  0  0  0  0  0  0
   58.5330   80.5850   28.7620 O   0  0  0  0  0  0  0  0  0  0  0  0
   56.4550   80.6300   26.8550 C   0  0  0  0  0  0  0  0  0  0  0  0
   55.5560   80.6040   25.7660 C   0  0  0  0  0  0  0  0  0  0  0  0
   54.6070   79.6020   25.9260 C   0  0  0  0  0  0  0  0  0  0  0  0
   51.8230   81.0880   22.3380 C   0  0  0  0  0  0  0  0  0  0  0  0
   52.9330   81.7320   21.5400 C   0  0  0  0  0  0  0  0  0  0  0  0
   51.8190   82.5780   22.0810 C   0  0  0  0  0  0  0  0  0  0  0  0
   53.8120   79.7140   23.0480 H   0  0  0  0  0  0  0  0  0  0  0  0
   52.1210   77.7610   25.2920 H   0  0  0  0  0  0  0  0  0  0  0  0
   55.3616   78.0494   28.9597 H   0  0  0  0  0  0  0  0  0  0  0  0
   56.7327   78.8290   30.9036 H   0  0  0  0  0  0  0  0  0  0  0  0
   59.1147   79.7245   31.8984 H   0  0  0  0  0  0  0  0  0  0  0  0
   60.2992   81.0841   29.9392 H   0  0  0  0  0  0  0  0  0  0  0  0
   57.2529   81.3869   26.8355 H   0  0  0  0  0  0  0  0  0  0  0  0
   55.6012   81.2869   24.9049 H   0  0  0  0  0  0  0  0  0  0  0  0
   51.1310   80.2519   22.1589 H   0  0  0  0  0  0  0  0  0  0  0  0
   53.9425   81.8130   21.9695 H   0  0  0  0  0  0  0  0  0  0  0  0
   53.3689   81.5672   20.5436 H   0  0  0  0  0  0  0  0  0  0  0  0
   52.0124   83.2784   22.9068 H   0  0  0  0  0  0  0  0  0  0  0  0
   51.1016   83.2888   21.6449 H   0  0  0  0  0  0  0  0  0  0  0  0
  1  2  2  0
  2  3  1  0
  3  4  1  0
  4  5  1  0
  5  6  1  0
  6  7  2  0
  7  8  1  0
  8  9  2  0
  9 10  1  0
 10 11  2  0
 11 12  1  0
 12 13  2  0
 13 14  1  0
  9 15  1  0
 15 16  2  0
 16 17  1  0
  2 18  1  0
 18 19  1  0
 19 20  1  0
 17  4  2  0
 20 18  1  0
 17  7  1  0
 14 10  1  0
  3 21  1  0
  5 22  1  0
  8 23  1  0
 11 24  1  0
 12 25  1  0
 13 26  1  0
 15 27  1  0
 16 28  1  0
 18 29  1  0
 19 30  1  0
 19 31  1  0
 20 32  1  0
 20 33  1  0
M  END
>  <meeko>  (1) 
{"is_sidechain": false}

>  <smiles>  (1) 
O=C(Nc1[nH]nc2cc(-c3ccco3)ccc12)C1CC1

>  <vina_score>  (1) 
-7.438

>  <job_id>  (1) 
b88289c097511620

$$$$

     RDKit          3D

 41 43  0  0  0  0  0  0  0  0999 V2000
   52.7690   83.6160   24.6450 N   0  0  0  0  0  0  0  0  0  0  0  0
   53.6880   83.8790   25.6200 C   0  0  0  0  0  0  0  0  0  0  0  0
   54.0100   84.9740   26.0530 O   0  0  0  0  0  0  0  0  0  0  0  0
   54.2840   82.6970   26.1180 N   0  0  0  0  0  0  0  0  0  0  0  0
   55.5900   82.5250   26.5120 C   0  0  0  0  0  0  0  0  0  0  0  0
   55.7320   81.2100   26.9190 C   0  0  0  0  0  0  0  0  0  0  0  0
   56.9350   80.5840   27.4670 C   0  0  0  0  0  0  0  0  0  0  0  0
   57.1930   79.4050   27.2700 O   0  0  0  0  0  0  0  0  0  0  0  0
   57.8090   81.4750   28.0890 N   0  0  0  0  0  0  0  0  0  0  0  0
   58.6600   81.2450   29.1820 C   0  0  0  0  0  0  0  0  0  0  0  0
   58.7440   79.8160   30.0430 S   0  0  0  0  0  0  0  0  0  0  0  0
   59.4310   82.3930   29.3930 N   0  0  0  0  0  0  0  0  0  0  0  0
   60.1640   82.8080   30.5290 C   0  0  0  0  0  0  0  0  0  0  0  0
   59.4290   83.2820   31.6260 C   0  0  0  0  0  0  0  0  0  0  0  0
   60.0760   83.6820   32.8000 C   0  0  0  0  0  0  0  0  0  0  0  0
   61.4610   83.5950   32.8890 C   0  0  0  0  0  0  0  0  0  0  0  0
   62.2590   84.0820   34.3320 Cl  0  0  0  0  0  0  0  0  0  0  0  0
   62.2010   83.1000   31.8190 C   0  0  0  0  0  0  0  0  0  0  0  0
   61.5520   82.7000   30.6450 C   0  0  0  0  0  0  0  0  0  0  0  0
   54.4280   80.6440   26.7320 C   0  0  0  0  0  0  0  0  0  0  0  0
   53.9580   79.2790   26.9790 C   0  0  0  0  0  0  0  0  0  0  0  0
   54.1120   78.6740   28.2330 C   0  0  0  0  0  0  0  0  0  0  0  0
   53.6750   77.3620   28.4450 C   0  0  0  0  0  0  0  0  0  0  0  0
   53.0920   76.6480   27.4000 C   0  0  0  0  0  0  0  0  0  0  0  0
   52.5600   75.0320   27.6610 Cl  0  0  0  0  0  0  0  0  0  0  0  0
   52.9430   77.2310   26.1450 C   0  0  0  0  0  0  0  0  0  0  0  0
   53.3780   78.5430   25.9340 C   0  0  0  0  0  0  0  0  0  0  0  0
   53.5610   81.5540   26.2510 N   0  0  0  0  0  0  0  0  0  0  0  0
   52.2690   84.3700   24.1960 H   0  0  0  0  0  0  0  0  0  0  0  0
   52.6000   82.6530   24.3680 H   0  0  0  0  0  0  0  0  0  0  0  0
   56.3780   83.2925   26.5050 H   0  0  0  0  0  0  0  0  0  0  0  0
   57.5790   82.4500   27.9860 H   0  0  0  0  0  0  0  0  0  0  0  0
   59.6790   82.8750   28.5370 H   0  0  0  0  0  0  0  0  0  0  0  0
   58.3324   83.3397   31.5623 H   0  0  0  0  0  0  0  0  0  0  0  0
   59.4912   84.0640   33.6498 H   0  0  0  0  0  0  0  0  0  0  0  0
   63.2956   83.0232   31.8960 H   0  0  0  0  0  0  0  0  0  0  0  0
   62.1397   82.2973   29.8069 H   0  0  0  0  0  0  0  0  0  0  0  0
   54.5795   79.2341   29.0563 H   0  0  0  0  0  0  0  0  0  0  0  0
   53.7913   76.8952   29.4342 H   0  0  0  0  0  0  0  0  0  0  0  0
   52.4849   76.6620   25.3226 H   0  0  0  0  0  0  0  0  0  0  0  0
   53.2647   79.0021   24.9408 H   0  0  0  0  0  0  0  0  0  0  0  0
  1  2  1  0
  2  3  2  0
  2  4  1  0
  4  5  1  0
  5  6  2  0
  6  7  1  0
  7  8  2  0
  7  9  1  0
  9 10  1  0
 10 11  2  0
 10 12  1  0
 12 13  1  0
 13 14  1  0
 14 15  2  0
 15 16  1  0
 16 17  1  0
 16 18  2  0
 18 19  1  0
  6 20  1  0
 20 21  1  0
 21 22  1  0
 22 23  2  0
 23 24  1  0
 24 25  1  0
 24 26  2  0
 26 27  1  0
 20 28  2  0
 28  4  1  0
 19 13  2  0
 27 21  2  0
  1 29  1  0
  1 30  1  0
  5 31  1  0
  9 32  1  0
 12 33  1  0
 14 34  1  0
 15 35  1  0
 18 36  1  0
 19 37  1  0
 22 38  1  0
 23 39  1  0
 26 40  1  0
 27 41  1  0
M  END
>  <meeko>  (1) 
{"is_sidechain": false}

>  <smiles>  (1) 
NC(=O)n1cc(C(=O)NC(=S)Nc2ccc(Cl)cc2)c(-c2ccc(Cl)cc2)n1

>  <vina_score>  (1) 
-8.646

>  <job_id>  (1) 
ba4e2e93ff28b8c9

$$$$

     RDKit          3D

 38 39  0  0  0  0  0  0  0  0999 V2000
   58.2240   80.2100   31.0880 C   0  0  0  0  0  0  0  0  0  0  0  0
   58.5770   79.8580   29.6410 C   0  0  0  0  0  0  0  0  0  0  0  0
   59.4720   80.9340   29.0210 C   0  0  0  0  0  0  0  0  0  0  0  0
   57.3340   79.6200   28.8070 C   0  0  0  0  0  0  0  0  0  0  0  0
   57.0610   80.3680   27.6550 C   0  0  0  0  0  0  0  0  0  0  0  0
   55.9020   80.1270   26.9030 C   0  0  0  0  0  0  0  0  0  0  0  0
   54.9900   79.1320   27.2720 C   0  0  0  0  0  0  0  0  0  0  0  0
   53.7990   78.8860   26.5680 N   0  0  0  0  0  0  0  0  0  0  0  0
   53.1890   79.5500   25.4900 C   0  0  0  0  0  0  0  0  0  0  0  0
   53.2560   78.9700   24.2120 C   0  0  0  0  0  0  0  0  0  0  0  0
   52.7010   79.6070   23.0980 C   0  0  0  0  0  0  0  0  0  0  0  0
   52.0660   80.8380   23.2580 C   0  0  0  0  0  0  0  0  0  0  0  0
   51.3890   81.6680   21.8520 S   0  0  0  0  0  0  0  0  0  0  0  0
   49.7480   81.3570   22.0200 N   0  0  0  0  0  0  0  0  0  0  0  0
   51.5430   83.0940   22.0200 O   0  0  0  0  0  0  0  0  0  0  0  0
   51.8000   80.9820   20.6490 O   0  0  0  0  0  0  0  0  0  0  0  0
   52.0010   81.4430   24.5130 C   0  0  0  0  0  0  0  0  0  0  0  0
   52.5620   80.7960   25.6200 C   0  0  0  0  0  0  0  0  0  0  0  0
   55.2630   78.3900   28.4260 C   0  0  0  0  0  0  0  0  0  0  0  0
   56.4150   78.6330   29.1720 C   0  0  0  0  0  0  0  0  0  0  0  0
   56.6280   77.8910   30.2700 F   0  0  0  0  0  0  0  0  0  0  0  0
   58.8338   79.6020   31.7725 H   0  0  0  0  0  0  0  0  0  0  0  0
   58.4264   81.2765   31.2658 H   0  0  0  0  0  0  0  0  0  0  0  0
   57.1581   80.0045   31.2658 H   0  0  0  0  0  0  0  0  0  0  0  0
   59.1434   78.9151   29.6529 H   0  0  0  0  0  0  0  0  0  0  0  0
   59.9550   81.5147   29.8207 H   0  0  0  0  0  0  0  0  0  0  0  0
   60.2426   80.4559   28.3984 H   0  0  0  0  0  0  0  0  0  0  0  0
   58.8616   81.6046   28.3984 H   0  0  0  0  0  0  0  0  0  0  0  0
   57.7630   81.1528   27.3366 H   0  0  0  0  0  0  0  0  0  0  0  0
   55.7061   80.7320   26.0055 H   0  0  0  0  0  0  0  0  0  0  0  0
   53.2860   78.0760   26.8970 H   0  0  0  0  0  0  0  0  0  0  0  0
   53.7540   77.9974   24.0857 H   0  0  0  0  0  0  0  0  0  0  0  0
   52.7648   79.1409   22.1037 H   0  0  0  0  0  0  0  0  0  0  0  0
   49.5060   81.3000   23.0090 H   0  0  0  0  0  0  0  0  0  0  0  0
   49.4970   80.5250   21.4850 H   0  0  0  0  0  0  0  0  0  0  0  0
   51.5125   82.4214   24.6319 H   0  0  0  0  0  0  0  0  0  0  0  0
   52.5097   81.2741   26.6093 H   0  0  0  0  0  0  0  0  0  0  0  0
   54.5612   77.6066   28.7481 H   0  0  0  0  0  0  0  0  0  0  0  0
  1  2  1  0
  2  3  1  0
  2  4  1  0
  4  5  1  0
  5  6  2  0
  6  7  1  0
  7  8  1  0
  8  9  1  0
  9 10  1  0
 10 11  2  0
 11 12  1  0
 12 13  1  0
 13 14  1  0
 13 15  2  0
 13 16  2  0
 12 17  2  0
 17 18  1  0
  7 19  2  0
 19 20  1  0
 20 21  1  0
 20  4  2  0
 18  9  2  0
  1 22  1  0
  1 23  1  0
  1 24  1  0
  2 25  1  0
  3 26  1  0
  3 27  1  0
  3 28  1  0
  5 29  1  0
  6 30  1  0
  8 31  1  0
 10 32  1  0
 11 33  1  0
 14 34  1  0
 14 35  1  0
 17 36  1  0
 18 37  1  0
 19 38  1  0
M  END
>  <meeko>  (1) 
{"is_sidechain": false}

>  <smiles>  (1) 
CC(C)c1ccc(Nc2ccc(S(N)(=O)=O)cc2)cc1F

>  <vina_score>  (1) 
-8.113

>  <job_id>  (1) 
bcac77e7e930d4d6

$$$$

     RDKit          3D

 37 39  0  0  0  0  0  0  0  0999 V2000
   59.3100   82.2430   34.0710 N   0  0  0  0  0  0  0  0  0  0  0  0
   60.1130   82.8380   32.7130 S   0  0  0  0  0  0  0  0  0  0  0  0
   61.5290   82.6390   32.9120 O   0  0  0  0  0  0  0  0  0  0  0  0
   59.5360   84.1390   32.4640 O   0  0  0  0  0  0  0  0  0  0  0  0
   59.5550   81.7190   31.4570 C   0  0  0  0  0  0  0  0  0  0  0  0
   60.0400   81.8570   30.1550 C   0  0  0  0  0  0  0  0  0  0  0  0
   59.6010   80.9820   29.1610 C   0  0  0  0  0  0  0  0  0  0  0  0
   58.6730   79.9720   29.4600 C   0  0  0  0  0  0  0  0  0  0  0  0
   58.1850   79.0340   28.3780 C   0  0  0  0  0  0  0  0  0  0  0  0
   56.8230   79.3910   27.8310 C   0  0  0  0  0  0  0  0  0  0  0  0
   56.6290   80.5740   27.1110 C   0  0  0  0  0  0  0  0  0  0  0  0
   55.3660   80.8950   26.6020 C   0  0  0  0  0  0  0  0  0  0  0  0
   54.2470   80.0620   26.7950 C   0  0  0  0  0  0  0  0  0  0  0  0
   52.9000   80.4460   26.2130 C   0  0  0  0  0  0  0  0  0  0  0  0
   52.6570   80.4130   24.7200 C   0  0  0  0  0  0  0  0  0  0  0  0
   52.7600   81.7290   25.4240 C   0  0  0  0  0  0  0  0  0  0  0  0
   54.4690   78.8660   27.5050 C   0  0  0  0  0  0  0  0  0  0  0  0
   53.0680   77.6070   27.7860 Br  0  0  0  0  0  0  0  0  0  0  0  0
   55.7320   78.5370   28.0200 C   0  0  0  0  0  0  0  0  0  0  0  0
   58.1850   79.8570   30.7720 C   0  0  0  0  0  0  0  0  0  0  0  0
   58.6210   80.7300   31.7710 C   0  0  0  0  0  0  0  0  0  0  0  0
   59.9940   82.0790   34.8100 H   0  0  0  0  0  0  0  0  0  0  0  0
   58.5500   82.8470   34.3820 H   0  0  0  0  0  0  0  0  0  0  0  0
   60.7633   82.6502   29.9146 H   0  0  0  0  0  0  0  0  0  0  0  0
   59.9849   81.0843   28.1353 H   0  0  0  0  0  0  0  0  0  0  0  0
   58.9079   79.0544   27.5492 H   0  0  0  0  0  0  0  0  0  0  0  0
   58.0960   78.0370   28.8342 H   0  0  0  0  0  0  0  0  0  0  0  0
   57.4751   81.2567   26.9437 H   0  0  0  0  0  0  0  0  0  0  0  0
   55.2430   81.8281   26.0327 H   0  0  0  0  0  0  0  0  0  0  0  0
   52.4057   79.9998   27.0885 H   0  0  0  0  0  0  0  0  0  0  0  0
   53.4591   80.0898   24.0402 H   0  0  0  0  0  0  0  0  0  0  0  0
   51.9100   79.9395   24.0659 H   0  0  0  0  0  0  0  0  0  0  0  0
   53.6377   82.3716   25.2608 H   0  0  0  0  0  0  0  0  0  0  0  0
   52.1197   82.6202   25.4999 H   0  0  0  0  0  0  0  0  0  0  0  0
   55.8652   77.5983   28.5778 H   0  0  0  0  0  0  0  0  0  0  0  0
   57.4531   79.0725   31.0147 H   0  0  0  0  0  0  0  0  0  0  0  0
   58.2321   80.6392   32.7959 H   0  0  0  0  0  0  0  0  0  0  0  0
  1  2  1  0
  2  3  2  0
  2  4  2  0
  2  5  1  0
  5  6  1  0
  6  7  2  0
  7  8  1  0
  8  9  1  0
  9 10  1  0
 10 11  1  0
 11 12  2  0
 12 13  1  0
 13 14  1  0
 14 15  1  0
 15 16  1  0
 13 17  2  0
 17 18  1  0
 17 19  1  0
  8 20  2  0
 20 21  1  0
 21  5  2  0
 19 10  2  0
 16 14  1  0
  1 22  1  0
  1 23  1  0
  6 24  1  0
  7 25  1  0
  9 26  1  0
  9 27  1  0
 11 28  1  0
 12 29  1  0
 14 30  1  0
 15 31  1  0
 15 32  1  0
 16 33  1  0
 16 34  1  0
 19 35  1  0
 20 36  1  0
 21 37  1  0
M  END
>  <meeko>  (1) 
{"is_sidechain": false}

>  <smiles>  (1) 
NS(=O)(=O)c1ccc(Cc2ccc(C3CC3)c(Br)c2)cc1

>  <vina_score>  (1) 
-7.924

>  <job_id>  (1) 
bdeab01a8b07ba59

$$$$

     RDKit          3D

 69 73  0  0  0  0  0  0  0  0999 V2000
   51.4350   75.3570   25.5280 C   0  0  0  0  0  0  0  0  0  0  0  0
   52.5600   74.7000   26.3110 C   0  0  0  0  0  0  0  0  0  0  0  0
   52.7500   75.3570   27.6780 C   0  0  0  0  0  0  0  0  0  0  0  0
   52.3470   76.8340   27.6450 C   0  0  0  0  0  0  0  0  0  0  0  0
   53.5460   77.7510   27.7810 C   0  0  0  0  0  0  0  0  0  0  0  0
   54.6460   77.4760   28.5130 C   0  0  0  0  0  0  0  0  0  0  0  0
   54.8110   76.2390   29.3560 C   0  0  0  0  0  0  0  0  0  0  0  0
   55.7500   78.4510   28.5060 C   0  0  0  0  0  0  0  0  0  0  0  0
   56.9270   78.2970   29.2130 C   0  0  0  0  0  0  0  0  0  0  0  0
   57.9440   79.1820   29.2150 N   0  0  0  0  0  0  0  0  0  0  0  0
   57.7950   80.2850   28.4780 C   0  0  0  0  0  0  0  0  0  0  0  0
   58.7740   81.2580   28.4120 N   0  0  0  0  0  0  0  0  0  0  0  0
   59.4000   82.0750   29.3320 C   0  0  0  0  0  0  0  0  0  0  0  0
   60.7340   81.9750   29.6960 C   0  0  0  0  0  0  0  0  0  0  0  0
   61.2680   82.8570   30.6450 C   0  0  0  0  0  0  0  0  0  0  0  0
   60.4870   83.8460   31.2430 C   0  0  0  0  0  0  0  0  0  0  0  0
   60.9850   84.7310   32.1800 N   0  0  0  0  0  0  0  0  0  0  0  0
   60.4440   86.0920   32.3350 C   0  0  0  0  0  0  0  0  0  0  0  0
   60.7420   86.6400   33.7500 C   0  0  0  0  0  0  0  0  0  0  0  0
   62.1680   86.6880   34.1240 N   0  0  0  0  0  0  0  0  0  0  0  0
   62.9570   85.7040   33.3620 C   0  0  0  0  0  0  0  0  0  0  0  0
   62.2030   84.4180   32.9480 C   0  0  0  0  0  0  0  0  0  0  0  0
   59.1640   83.8600   30.7990 C   0  0  0  0  0  0  0  0  0  0  0  0
   58.6110   83.0180   29.8830 N   0  0  0  0  0  0  0  0  0  0  0  0
   56.6940   80.5230   27.7550 N   0  0  0  0  0  0  0  0  0  0  0  0
   55.6890   79.6180   27.7670 C   0  0  0  0  0  0  0  0  0  0  0  0
   54.5300   79.8860   26.9880 N   0  0  0  0  0  0  0  0  0  0  0  0
   54.4710   81.1510   26.2360 C   0  0  0  0  0  0  0  0  0  0  0  0
   53.9680   81.0150   24.7820 C   0  0  0  0  0  0  0  0  0  0  0  0
   52.7910   81.9790   24.6560 C   0  0  0  0  0  0  0  0  0  0  0  0
   53.0460   83.0270   25.7260 C   0  0  0  0  0  0  0  0  0  0  0  0
   53.5720   82.2090   26.8950 C   0  0  0  0  0  0  0  0  0  0  0  0
   53.4380   79.0330   27.0000 C   0  0  0  0  0  0  0  0  0  0  0  0
   52.3880   79.2730   26.4010 O   0  0  0  0  0  0  0  0  0  0  0  0
   50.7023   75.7849   26.2280 H   0  0  0  0  0  0  0  0  0  0  0  0
   51.8472   76.1564   24.8947 H   0  0  0  0  0  0  0  0  0  0  0  0
   50.9413   74.6052   24.8947 H   0  0  0  0  0  0  0  0  0  0  0  0
   52.3206   73.6362   26.4560 H   0  0  0  0  0  0  0  0  0  0  0  0
   53.4924   74.8175   25.7393 H   0  0  0  0  0  0  0  0  0  0  0  0
   52.1277   74.8320   28.4177 H   0  0  0  0  0  0  0  0  0  0  0  0
   53.8140   75.2929   27.9497 H   0  0  0  0  0  0  0  0  0  0  0  0
   51.8453   77.0443   26.6889 H   0  0  0  0  0  0  0  0  0  0  0  0
   51.6756   77.0229   28.4956 H   0  0  0  0  0  0  0  0  0  0  0  0
   54.7744   76.5133   30.4206 H   0  0  0  0  0  0  0  0  0  0  0  0
   53.9993   75.5314   29.1316 H   0  0  0  0  0  0  0  0  0  0  0  0
   55.7798   75.7689   29.1316 H   0  0  0  0  0  0  0  0  0  0  0  0
   57.0427   77.3859   29.8184 H   0  0  0  0  0  0  0  0  0  0  0  0
   59.1100   81.4050   27.4740 H   0  0  0  0  0  0  0  0  0  0  0  0
   61.3727   81.2040   29.2403 H   0  0  0  0  0  0  0  0  0  0  0  0
   62.3280   82.7673   30.9249 H   0  0  0  0  0  0  0  0  0  0  0  0
   60.9072   86.7522   31.5870 H   0  0  0  0  0  0  0  0  0  0  0  0
   59.3540   86.0582   32.1908 H   0  0  0  0  0  0  0  0  0  0  0  0
   60.3414   87.6628   33.8088 H   0  0  0  0  0  0  0  0  0  0  0  0
   60.2686   85.9379   34.4521 H   0  0  0  0  0  0  0  0  0  0  0  0
   62.2440   86.4880   35.1210 H   0  0  0  0  0  0  0  0  0  0  0  0
   63.3165   86.1952   32.4458 H   0  0  0  0  0  0  0  0  0  0  0  0
   63.7618   85.3766   34.0367 H   0  0  0  0  0  0  0  0  0  0  0  0
   62.8672   83.7979   32.3281 H   0  0  0  0  0  0  0  0  0  0  0  0
   61.9072   83.8815   33.8616 H   0  0  0  0  0  0  0  0  0  0  0  0
   58.5035   84.6261   31.2313 H   0  0  0  0  0  0  0  0  0  0  0  0
   55.5255   81.4641   26.2384 H   0  0  0  0  0  0  0  0  0  0  0  0
   54.7644   81.2885   24.0742 H   0  0  0  0  0  0  0  0  0  0  0  0
   53.6705   79.9813   24.5520 H   0  0  0  0  0  0  0  0  0  0  0  0
   52.7699   82.4394   23.6572 H   0  0  0  0  0  0  0  0  0  0  0  0
   51.8211   81.4761   24.7838 H   0  0  0  0  0  0  0  0  0  0  0  0
   53.7937   83.7604   25.3896 H   0  0  0  0  0  0  0  0  0  0  0  0
   52.1499   83.6131   25.9781 H   0  0  0  0  0  0  0  0  0  0  0  0
   54.1522   82.8404   27.5840 H   0  0  0  0  0  0  0  0  0  0  0  0
   52.7656   81.7634   27.4959 H   0  0  0  0  0  0  0  0  0  0  0  0
  1  2  1  0
  2  3  1  0
  3  4  1  0
  4  5  1  0
  5  6  2  0
  6  7  1  0
  6  8  1  0
  8  9  2  0
  9 10  1  0
 10 11  2  0
 11 12  1  0
 12 13  1  0
 13 14  2  0
 14 15  1  0
 15 16  2  0
 16 17  1  0
 17 18  1  0
 18 19  1  0
 19 20  1  0
 20 21  1  0
 21 22  1  0
 16 23  1  0
 23 24  2  0
 11 25  1  0
 25 26  2  0
 26 27  1  0
 27 28  1  0
 28 29  1  0
 29 30  1  0
 30 31  1  0
 31 32  1  0
 27 33  1  0
 33 34  2  0
 33  5  1  0
 26  8  1  0
 32 28  1  0
 24 13  1  0
 22 17  1  0
  1 35  1  0
  1 36  1  0
  1 37  1  0
  2 38  1  0
  2 39  1  0
  3 40  1  0
  3 41  1  0
  4 42  1  0
  4 43  1  0
  7 44  1  0
  7 45  1  0
  7 46  1  0
  9 47  1  0
 12 48  1  0
 14 49  1  0
 15 50  1  0
 18 51  1  0
 18 52  1  0
 19 53  1  0
 19 54  1  0
 20 55  1  0
 21 56  1  0
 21 57  1  0
 22 58  1  0
 22 59  1  0
 23 60  1  0
 28 61  1  0
 29 62  1  0
 29 63  1  0
 30 64  1  0
 30 65  1  0
 31 66  1  0
 31 67  1  0
 32 68  1  0
 32 69  1  0
M  END
>  <meeko>  (1) 
{"is_sidechain": false}

>  <smiles>  (1) 
CCCCc1c(C)c2cnc(Nc3ccc(N4CCNCC4)cn3)nc2n(C2CCCC2)c1=O

>  <vina_score>  (1) 
-8.829

>  <job_id>  (1) 
c190236933632dd2

$$$$

     RDKit          3D

 42 45  0  0  0  0  0  0  0  0999 V2000
   60.1250   80.2320   35.8440 O   0  0  0  0  0  0  0  0  0  0  0  0
   60.0600   80.8690   34.8000 C   0  0  0  0  0  0  0  0  0  0  0  0
   58.8700   81.3300   34.2930 N   0  0  0  0  0  0  0  0  0  0  0  0
   58.7340   82.0470   33.1430 C   0  0  0  0  0  0  0  0  0  0  0  0
   57.4350   82.3990   32.8950 O   0  0  0  0  0  0  0  0  0  0  0  0
   59.7990   82.3550   32.3810 C   0  0  0  0  0  0  0  0  0  0  0  0
   59.5810   83.1880   31.1760 C   0  0  0  0  0  0  0  0  0  0  0  0
   59.6030   82.8570   29.9370 N   0  0  0  0  0  0  0  0  0  0  0  0
   59.9900   81.5060   29.5270 C   0  0  0  0  0  0  0  0  0  0  0  0
   58.7660   80.6890   29.2050 C   0  0  0  0  0  0  0  0  0  0  0  0
   58.2840   79.7580   30.2000 C   0  0  0  0  0  0  0  0  0  0  0  0
   57.1940   79.0130   29.9700 C   0  0  0  0  0  0  0  0  0  0  0  0
   56.4850   79.1080   28.7820 N   0  0  0  0  0  0  0  0  0  0  0  0
   55.3510   78.2770   28.6390 C   0  0  0  0  0  0  0  0  0  0  0  0
   54.0800   78.5650   28.0460 C   0  0  0  0  0  0  0  0  0  0  0  0
   53.3120   77.4290   28.1540 C   0  0  0  0  0  0  0  0  0  0  0  0
   54.0090   76.4490   28.7710 O   0  0  0  0  0  0  0  0  0  0  0  0
   55.2320   76.9620   29.0610 C   0  0  0  0  0  0  0  0  0  0  0  0
   56.8790   79.9910   27.7630 C   0  0  0  0  0  0  0  0  0  0  0  0
   56.3350   80.1680   26.6760 O   0  0  0  0  0  0  0  0  0  0  0  0
   58.0980   80.8060   28.0470 C   0  0  0  0  0  0  0  0  0  0  0  0
   61.1420   81.9220   32.8120 C   0  0  0  0  0  0  0  0  0  0  0  0
   62.2970   82.2050   32.0650 C   0  0  0  0  0  0  0  0  0  0  0  0
   63.5470   81.7680   32.5140 C   0  0  0  0  0  0  0  0  0  0  0  0
   65.2470   82.1970   31.3950 I   0  0  0  0  0  0  0  0  0  0  0  0
   63.6690   81.0460   33.7010 C   0  0  0  0  0  0  0  0  0  0  0  0
   62.5280   80.7540   34.4490 C   0  0  0  0  0  0  0  0  0  0  0  0
   61.2740   81.1890   34.0040 C   0  0  0  0  0  0  0  0  0  0  0  0
   58.0340   81.1280   34.8280 H   0  0  0  0  0  0  0  0  0  0  0  0
   56.8380   81.9260   33.5030 H   0  0  0  0  0  0  0  0  0  0  0  0
   59.3685   84.2491   31.3730 H   0  0  0  0  0  0  0  0  0  0  0  0
   60.6312   81.5666   28.6353 H   0  0  0  0  0  0  0  0  0  0  0  0
   60.5367   81.0238   30.3508 H   0  0  0  0  0  0  0  0  0  0  0  0
   58.8178   79.6599   31.1568 H   0  0  0  0  0  0  0  0  0  0  0  0
   56.8532   78.3085   30.7430 H   0  0  0  0  0  0  0  0  0  0  0  0
   53.7745   79.5178   27.5889 H   0  0  0  0  0  0  0  0  0  0  0  0
   52.2784   77.3320   27.7903 H   0  0  0  0  0  0  0  0  0  0  0  0
   56.0312   76.4023   29.5690 H   0  0  0  0  0  0  0  0  0  0  0  0
   58.4565   81.5185   27.2895 H   0  0  0  0  0  0  0  0  0  0  0  0
   62.2182   82.7713   31.1253 H   0  0  0  0  0  0  0  0  0  0  0  0
   64.6580   80.7091   34.0451 H   0  0  0  0  0  0  0  0  0  0  0  0
   62.6135   80.1836   35.3857 H   0  0  0  0  0  0  0  0  0  0  0  0
  1  2  2  0
  2  3  1  0
  3  4  1  0
  4  5  1  0
  4  6  2  0
  6  7  1  0
  7  8  2  3
  8  9  1  0
  9 10  1  0
 10 11  1  0
 11 12  2  0
 12 13  1  0
 13 14  1  0
 14 15  1  0
 15 16  2  0
 16 17  1  0
 17 18  1  0
 13 19  1  0
 19 20  2  0
 19 21  1  0
  6 22  1  0
 22 23  2  0
 23 24  1  0
 24 25  1  0
 24 26  2  0
 26 27  1  0
 27 28  2  0
 28  2  1  0
 21 10  2  0
 28 22  1  0
 18 14  2  0
  3 29  1  0
  5 30  1  0
  7 31  1  0
  9 32  1  0
  9 33  1  0
 11 34  1  0
 12 35  1  0
 15 36  1  0
 16 37  1  0
 18 38  1  0
 21 39  1  0
 23 40  1  0
 26 41  1  0
 27 42  1  0
M  END
>  <meeko>  (1) 
{"is_sidechain": false}

>  <smiles>  (1) 
O=c1[nH]c(O)c(C=NCc2ccn(-c3ccoc3)c(=O)c2)c2cc(I)ccc12

>  <vina_score>  (1) 
-8.200

>  <job_id>  (1) 
c301ed24b1346d9d

$$$$

     RDKit          3D

 59 62  0  0  0  0  0  0  0  0999 V2000
   52.9420   82.6690   24.9040 C   0  0  0  0  0  0  0  0  0  0  0  0
   52.1130   81.6760   24.0970 C   0  0  0  0  0  0  0  0  0  0  0  0
   52.9350   81.1160   22.9390 C   0  0  0  0  0  0  0  0  0  0  0  0
   51.7410   80.6170   24.9830 O   0  0  0  0  0  0  0  0  0  0  0  0
   52.5570   80.5120   26.1410 C   0  0  0  0  0  0  0  0  0  0  0  0
   53.3130   79.1860   26.3000 C   0  0  0  0  0  0  0  0  0  0  0  0
   52.8970   78.1230   25.8410 O   0  0  0  0  0  0  0  0  0  0  0  0
   54.6130   79.1930   27.0400 C   0  0  0  0  0  0  0  0  0  0  0  0
   54.8720   78.3390   28.1180 C   0  0  0  0  0  0  0  0  0  0  0  0
   56.1140   78.3750   28.7620 C   0  0  0  0  0  0  0  0  0  0  0  0
   57.1120   79.2650   28.3410 C   0  0  0  0  0  0  0  0  0  0  0  0
   58.4660   79.2660   29.0130 C   0  0  0  0  0  0  0  0  0  0  0  0
   58.6460   80.3910   30.0220 C   0  0  0  0  0  0  0  0  0  0  0  0
   58.2880   80.2710   31.1940 O   0  0  0  0  0  0  0  0  0  0  0  0
   59.1940   81.5450   29.4900 N   0  0  0  0  0  0  0  0  0  0  0  0
   59.4040   82.6800   30.2490 C   0  0  0  0  0  0  0  0  0  0  0  0
   58.4130   83.5430   30.6460 N   0  0  0  0  0  0  0  0  0  0  0  0
   58.8420   84.5990   31.3680 N   0  0  0  0  0  0  0  0  0  0  0  0
   60.1730   84.4340   31.4520 C   0  0  0  0  0  0  0  0  0  0  0  0
   61.1420   85.2360   32.0770 C   0  0  0  0  0  0  0  0  0  0  0  0
   62.4580   84.7340   31.9590 C   0  0  0  0  0  0  0  0  0  0  0  0
   62.7920   83.5240   31.2720 C   0  0  0  0  0  0  0  0  0  0  0  0
   64.1780   83.1550   31.2940 N   0  0  0  0  0  0  0  0  0  0  0  0
   64.5300   81.7470   31.0210 C   0  0  0  0  0  0  0  0  0  0  0  0
   66.0560   81.7320   31.0850 C   0  0  0  0  0  0  0  0  0  0  0  0
   66.5320   82.9270   30.2690 C   0  0  0  0  0  0  0  0  0  0  0  0
   65.2830   84.1900   30.4830 S   0  0  0  0  0  0  0  0  0  0  0  0
   65.7410   85.1940   31.4150 O   0  0  0  0  0  0  0  0  0  0  0  0
   64.7680   84.5190   29.1700 O   0  0  0  0  0  0  0  0  0  0  0  0
   61.8370   82.6970   30.6440 C   0  0  0  0  0  0  0  0  0  0  0  0
   60.5530   83.2200   30.7660 C   0  0  0  0  0  0  0  0  0  0  0  0
   56.8470   80.1280   27.2710 C   0  0  0  0  0  0  0  0  0  0  0  0
   55.6090   80.0890   26.6250 C   0  0  0  0  0  0  0  0  0  0  0  0
   52.7896   82.4864   25.9780 H   0  0  0  0  0  0  0  0  0  0  0  0
   54.0067   82.5429   24.6581 H   0  0  0  0  0  0  0  0  0  0  0  0
   52.6278   83.6941   24.6581 H   0  0  0  0  0  0  0  0  0  0  0  0
   51.2246   82.1689   23.6752 H   0  0  0  0  0  0  0  0  0  0  0  0
   53.7826   80.5385   23.3366 H   0  0  0  0  0  0  0  0  0  0  0  0
   52.3017   80.4607   22.3230 H   0  0  0  0  0  0  0  0  0  0  0  0
   53.3130   81.9452   22.3230 H   0  0  0  0  0  0  0  0  0  0  0  0
   53.2993   81.3231   26.1069 H   0  0  0  0  0  0  0  0  0  0  0  0
   51.8717   80.5730   26.9992 H   0  0  0  0  0  0  0  0  0  0  0  0
   54.0970   77.6373   28.4602 H   0  0  0  0  0  0  0  0  0  0  0  0
   56.3091   77.6982   29.6069 H   0  0  0  0  0  0  0  0  0  0  0  0
   58.5954   78.3067   29.5354 H   0  0  0  0  0  0  0  0  0  0  0  0
   59.2170   79.4180   28.2238 H   0  0  0  0  0  0  0  0  0  0  0  0
   59.4770   81.5670   28.5160 H   0  0  0  0  0  0  0  0  0  0  0  0
   57.4210   83.4510   30.4390 H   0  0  0  0  0  0  0  0  0  0  0  0
   60.8993   86.1679   32.6087 H   0  0  0  0  0  0  0  0  0  0  0  0
   63.2740   85.3076   32.4229 H   0  0  0  0  0  0  0  0  0  0  0  0
   64.0996   81.0809   31.7833 H   0  0  0  0  0  0  0  0  0  0  0  0
   64.1420   81.3919   30.0549 H   0  0  0  0  0  0  0  0  0  0  0  0
   66.3940   81.8243   32.1277 H   0  0  0  0  0  0  0  0  0  0  0  0
   66.4627   80.7903   30.6879 H   0  0  0  0  0  0  0  0  0  0  0  0
   67.5042   83.2824   30.6411 H   0  0  0  0  0  0  0  0  0  0  0  0
   66.6672   82.6661   29.2090 H   0  0  0  0  0  0  0  0  0  0  0  0
   62.0768   81.7579   30.1239 H   0  0  0  0  0  0  0  0  0  0  0  0
   57.6167   80.8396   26.9376 H   0  0  0  0  0  0  0  0  0  0  0  0
   55.4133   80.7681   25.7821 H   0  0  0  0  0  0  0  0  0  0  0  0
  1  2  1  0
  2  3  1  0
  2  4  1  0
  4  5  1  0
  5  6  1  0
  6  7  2  0
  6  8  1  0
  8  9  1  0
  9 10  2  0
 10 11  1  0
 11 12  1  0
 12 13  1  0
 13 14  2  0
 13 15  1  0
 15 16  1  0
 16 17  1  0
 17 18  1  0
 18 19  2  0
 19 20  1  0
 20 21  2  0
 21 22  1  0
 22 23  1  0
 23 24  1  0
 24 25  1  0
 25 26  1  0
 26 27  1  0
 27 28  2  0
 27 29  2  0
 22 30  2  0
 30 31  1  0
 11 32  2  0
 32 33  1  0
 33  8  2  0
 31 16  2  0
 31 19  1  0
 27 23  1  0
  1 34  1  0
  1 35  1  0
  1 36  1  0
  2 37  1  0
  3 38  1  0
  3 39  1  0
  3 40  1  0
  5 41  1  0
  5 42  1  0
  9 43  1  0
 10 44  1  0
 12 45  1  0
 12 46  1  0
 15 47  1  0
 17 48  1  0
 20 49  1  0
 21 50  1  0
 24 51  1  0
 24 52  1  0
 25 53  1  0
 25 54  1  0
 26 55  1  0
 26 56  1  0
 30 57  1  0
 32 58  1  0
 33 59  1  0
M  END
>  <meeko>  (1) 
{"is_sidechain": false}

>  <smiles>  (1) 
CC(C)OCC(=O)c1ccc(CC(=O)Nc2[nH]nc3ccc(N4CCCS4(=O)=O)cc23)cc1

>  <vina_score>  (1) 
-8.926

>  <job_id>  (1) 
c65deb07ec2946e1

$$$$

     RDKit          3D

 62 67  0  0  0  0  0  0  0  0999 V2000
   55.3310   76.4200   30.2700 C   0  0  0  0  0  0  0  0  0  0  0  0
   55.1440   77.4570   29.1860 C   0  0  0  0  0  0  0  0  0  0  0  0
   54.0230   77.4360   28.5240 N   0  0  0  0  0  0  0  0  0  0  0  0
   53.7500   78.3970   27.5420 C   0  0  0  0  0  0  0  0  0  0  0  0
   53.5980   79.7480   27.8710 C   0  0  0  0  0  0  0  0  0  0  0  0
   53.3100   80.6930   26.8830 C   0  0  0  0  0  0  0  0  0  0  0  0
   53.1460   80.2720   25.5600 C   0  0  0  0  0  0  0  0  0  0  0  0
   52.8150   81.4630   24.2960 S   0  0  0  0  0  0  0  0  0  0  0  0
   51.1400   81.4030   24.1930 N   0  0  0  0  0  0  0  0  0  0  0  0
   53.3100   80.9660   23.0340 O   0  0  0  0  0  0  0  0  0  0  0  0
   53.1340   82.7840   24.7870 O   0  0  0  0  0  0  0  0  0  0  0  0
   53.2790   78.9240   25.2200 C   0  0  0  0  0  0  0  0  0  0  0  0
   53.5680   77.9900   26.2170 C   0  0  0  0  0  0  0  0  0  0  0  0
   56.2660   78.4060   28.9900 C   0  0  0  0  0  0  0  0  0  0  0  0
   56.7700   78.6310   27.7100 C   0  0  0  0  0  0  0  0  0  0  0  0
   57.8360   79.5110   27.5130 C   0  0  0  0  0  0  0  0  0  0  0  0
   58.3720   80.1420   28.6420 C   0  0  0  0  0  0  0  0  0  0  0  0
   59.4090   81.0380   28.7450 N   0  0  0  0  0  0  0  0  0  0  0  0
   59.6230   81.3790   30.0500 C   0  0  0  0  0  0  0  0  0  0  0  0
   60.6260   82.1940   30.3430 O   0  0  0  0  0  0  0  0  0  0  0  0
   58.6720   80.7440   30.8290 C   0  0  0  0  0  0  0  0  0  0  0  0
   58.4640   80.8730   32.3110 C   0  0  0  0  0  0  0  0  0  0  0  0
   59.0430   82.1320   32.8760 C   0  0  0  0  0  0  0  0  0  0  0  0
   58.6910   83.4210   32.5190 C   0  0  0  0  0  0  0  0  0  0  0  0
   57.8100   83.8390   31.6180 O   0  0  0  0  0  0  0  0  0  0  0  0
   59.4300   84.2870   33.2800 N   0  0  0  0  0  0  0  0  0  0  0  0
   60.2850   83.5940   34.1050 C   0  0  0  0  0  0  0  0  0  0  0  0
   61.2200   84.0630   35.0300 C   0  0  0  0  0  0  0  0  0  0  0  0
   61.9720   83.1120   35.7320 C   0  0  0  0  0  0  0  0  0  0  0  0
   61.8090   81.7360   35.5230 C   0  0  0  0  0  0  0  0  0  0  0  0
   62.6070   80.7640   36.2600 C   0  0  0  0  0  0  0  0  0  0  0  0
   63.0650   79.4820   36.0310 C   0  0  0  0  0  0  0  0  0  0  0  0
   63.7970   79.0350   37.1040 N   0  0  0  0  0  0  0  0  0  0  0  0
   63.7570   80.0470   37.9390 C   0  0  0  0  0  0  0  0  0  0  0  0
   63.0590   81.1300   37.5040 O   0  0  0  0  0  0  0  0  0  0  0  0
   60.8550   81.3010   34.5830 C   0  0  0  0  0  0  0  0  0  0  0  0
   60.0770   82.2380   33.8660 C   0  0  0  0  0  0  0  0  0  0  0  0
   57.8910   79.9340   29.9350 C   0  0  0  0  0  0  0  0  0  0  0  0
   56.8130   79.0410   30.1130 C   0  0  0  0  0  0  0  0  0  0  0  0
   55.2444   76.9003   31.2558 H   0  0  0  0  0  0  0  0  0  0  0  0
   54.5585   75.6432   30.1715 H   0  0  0  0  0  0  0  0  0  0  0  0
   56.3262   75.9619   30.1715 H   0  0  0  0  0  0  0  0  0  0  0  0
   53.7062   80.0695   28.9174 H   0  0  0  0  0  0  0  0  0  0  0  0
   53.2133   81.7573   27.1434 H   0  0  0  0  0  0  0  0  0  0  0  0
   50.7730   80.7500   24.8860 H   0  0  0  0  0  0  0  0  0  0  0  0
   50.7540   82.3450   24.2660 H   0  0  0  0  0  0  0  0  0  0  0  0
   53.1571   78.6008   24.1757 H   0  0  0  0  0  0  0  0  0  0  0  0
   53.6532   76.9244   25.9575 H   0  0  0  0  0  0  0  0  0  0  0  0
   56.3246   78.1114   26.8488 H   0  0  0  0  0  0  0  0  0  0  0  0
   58.2398   79.7015   26.5077 H   0  0  0  0  0  0  0  0  0  0  0  0
   59.9660   81.3790   27.9760 H   0  0  0  0  0  0  0  0  0  0  0  0
   60.3570   83.0890   30.0740 H   0  0  0  0  0  0  0  0  0  0  0  0
   57.3832   80.8618   32.5154 H   0  0  0  0  0  0  0  0  0  0  0  0
   58.9817   80.0291   32.7903 H   0  0  0  0  0  0  0  0  0  0  0  0
   58.2220   83.8720   30.7390 H   0  0  0  0  0  0  0  0  0  0  0  0
   59.3790   85.2940   33.2410 H   0  0  0  0  0  0  0  0  0  0  0  0
   61.3610   85.1404   35.2013 H   0  0  0  0  0  0  0  0  0  0  0  0
   62.7125   83.4557   36.4692 H   0  0  0  0  0  0  0  0  0  0  0  0
   62.8711   78.9003   35.1178 H   0  0  0  0  0  0  0  0  0  0  0  0
   64.2527   80.0209   38.9206 H   0  0  0  0  0  0  0  0  0  0  0  0
   60.7144   80.2246   34.4056 H   0  0  0  0  0  0  0  0  0  0  0  0
   56.4085   78.8465   31.1173 H   0  0  0  0  0  0  0  0  0  0  0  0
  1  2  1  0
  2  3  2  3
  3  4  1  0
  4  5  1  0
  5  6  2  0
  6  7  1  0
  7  8  1  0
  8  9  1  0
  8 10  2  0
  8 11  2  0
  7 12  2  0
 12 13  1  0
  2 14  1  0
 14 15  2  0
 15 16  1  0
 16 17  2  0
 17 18  1  0
 18 19  1  0
 19 20  1  0
 19 21  2  0
 21 22  1  0
 22 23  1  0
 23 24  2  0
 24 25  1  0
 24 26  1  0
 26 27  1  0
 27 28  2  0
 28 29  1  0
 29 30  2  0
 30 31  1  0
 31 32  2  0
 32 33  1  0
 33 34  2  0
 34 35  1  0
 30 36  1  0
 36 37  2  0
 21 38  1  0
 38 39  2  0
 13  4  2  0
 39 14  1  0
 38 17  1  0
 37 23  1  0
 37 27  1  0
 35 31  1  0
  1 40  1  0
  1 41  1  0
  1 42  1  0
  5 43  1  0
  6 44  1  0
  9 45  1  0
  9 46  1  0
 12 47  1  0
 13 48  1  0
 15 49  1  0
 16 50  1  0
 18 51  1  0
 20 52  1  0
 22 53  1  0
 22 54  1  0
 25 55  1  0
 26 56  1  0
 28 57  1  0
 29 58  1  0
 32 59  1  0
 34 60  1  0
 36 61  1  0
 39 62  1  0
M  END
>  <meeko>  (1) 
{"is_sidechain": false}

>  <smiles>  (1) 
CC(=Nc1ccc(S(N)(=O)=O)cc1)c1ccc2[nH]c(O)c(Cc3c(O)[nH]c4ccc(-c5cnco5)cc34)c2c1

>  <vina_score>  (1) 
-9.382

>  <job_id>  (1) 
c7d54f5332d43194

$$$$

     RDKit          3D

 69 73  0  0  0  0  0  0  0  0999 V2000
   52.0280   83.2000   22.6260 C   0  0  0  0  0  0  0  0  0  0  0  0
   52.4780   82.0530   23.4560 C   0  0  0  0  0  0  0  0  0  0  0  0
   52.4450   80.8030   23.0420 N   0  0  0  0  0  0  0  0  0  0  0  0
   52.9440   80.0430   24.0670 C   0  0  0  0  0  0  0  0  0  0  0  0
   53.1460   78.6580   24.1610 C   0  0  0  0  0  0  0  0  0  0  0  0
   52.8300   77.8410   23.1450 F   0  0  0  0  0  0  0  0  0  0  0  0
   53.6850   78.1110   25.3280 C   0  0  0  0  0  0  0  0  0  0  0  0
   54.0380   78.9140   26.4280 C   0  0  0  0  0  0  0  0  0  0  0  0
   54.6170   78.2940   27.6400 C   0  0  0  0  0  0  0  0  0  0  0  0
   55.8740   78.7020   27.9500 N   0  0  0  0  0  0  0  0  0  0  0  0
   56.4740   78.1890   29.0380 C   0  0  0  0  0  0  0  0  0  0  0  0
   57.7490   78.5660   29.4090 N   0  0  0  0  0  0  0  0  0  0  0  0
   58.3660   79.7680   29.7050 C   0  0  0  0  0  0  0  0  0  0  0  0
   58.9660   80.5940   28.7630 C   0  0  0  0  0  0  0  0  0  0  0  0
   59.5630   81.7870   29.1700 C   0  0  0  0  0  0  0  0  0  0  0  0
   59.5430   82.1470   30.5160 C   0  0  0  0  0  0  0  0  0  0  0  0
   58.9340   81.2660   31.4050 C   0  0  0  0  0  0  0  0  0  0  0  0
   58.3480   80.1040   31.0140 N   0  0  0  0  0  0  0  0  0  0  0  0
   58.8410   81.6070   32.8680 C   0  0  0  0  0  0  0  0  0  0  0  0
   59.8000   82.7340   33.2600 C   0  0  0  0  0  0  0  0  0  0  0  0
   59.8040   83.8740   32.3270 N   0  0  0  0  0  0  0  0  0  0  0  0
   58.5240   84.6060   32.2490 C   0  0  0  0  0  0  0  0  0  0  0  0
   58.7030   86.0960   31.9210 C   0  0  0  0  0  0  0  0  0  0  0  0
   57.8660   86.9920   32.8500 C   0  0  0  0  0  0  0  0  0  0  0  0
   56.4560   86.9820   32.5250 N   0  0  0  0  0  0  0  0  0  0  0  0
   57.9360   86.6070   34.2560 N   0  0  0  0  0  0  0  0  0  0  0  0
   56.6850   86.9930   34.8980 O   0  0  0  0  0  0  0  0  0  0  0  0
   60.2290   83.4010   30.9940 C   0  0  0  0  0  0  0  0  0  0  0  0
   55.8860   77.2790   29.8320 N   0  0  0  0  0  0  0  0  0  0  0  0
   54.6400   76.8840   29.5020 C   0  0  0  0  0  0  0  0  0  0  0  0
   53.9570   77.3620   28.4140 C   0  0  0  0  0  0  0  0  0  0  0  0
   52.7240   76.9170   28.1380 F   0  0  0  0  0  0  0  0  0  0  0  0
   53.8390   80.3100   26.3310 C   0  0  0  0  0  0  0  0  0  0  0  0
   53.2880   80.8460   25.1500 C   0  0  0  0  0  0  0  0  0  0  0  0
   52.9700   82.1330   24.7450 N   0  0  0  0  0  0  0  0  0  0  0  0
   53.1680   83.3240   25.5690 C   0  0  0  0  0  0  0  0  0  0  0  0
   54.6340   83.7130   25.7700 C   0  0  0  0  0  0  0  0  0  0  0  0
   52.4130   83.2320   26.8950 C   0  0  0  0  0  0  0  0  0  0  0  0
   51.7053   84.0225   23.2813 H   0  0  0  0  0  0  0  0  0  0  0  0
   52.8588   83.5414   21.9911 H   0  0  0  0  0  0  0  0  0  0  0  0
   51.1866   82.8854   21.9911 H   0  0  0  0  0  0  0  0  0  0  0  0
   53.8375   77.0233   25.3885 H   0  0  0  0  0  0  0  0  0  0  0  0
   58.3850   77.7870   29.4610 H   0  0  0  0  0  0  0  0  0  0  0  0
   58.9703   80.3084   27.7007 H   0  0  0  0  0  0  0  0  0  0  0  0
   60.0480   82.4416   28.4309 H   0  0  0  0  0  0  0  0  0  0  0  0
   57.8118   81.9229   33.0936 H   0  0  0  0  0  0  0  0  0  0  0  0
   59.1192   80.7111   33.4424 H   0  0  0  0  0  0  0  0  0  0  0  0
   59.5104   83.1032   34.2549 H   0  0  0  0  0  0  0  0  0  0  0  0
   60.8137   82.3073   33.2428 H   0  0  0  0  0  0  0  0  0  0  0  0
   57.9048   84.1464   31.4646 H   0  0  0  0  0  0  0  0  0  0  0  0
   58.0479   84.5421   33.2386 H   0  0  0  0  0  0  0  0  0  0  0  0
   59.7648   86.3600   32.0340 H   0  0  0  0  0  0  0  0  0  0  0  0
   58.3612   86.2615   30.8886 H   0  0  0  0  0  0  0  0  0  0  0  0
   58.3113   87.9855   32.6929 H   0  0  0  0  0  0  0  0  0  0  0  0
   55.9630   86.9210   33.4150 H   0  0  0  0  0  0  0  0  0  0  0  0
   56.2780   86.0890   32.0710 H   0  0  0  0  0  0  0  0  0  0  0  0
   57.8940   85.5860   34.3080 H   0  0  0  0  0  0  0  0  0  0  0  0
   56.9430   87.0040   35.8410 H   0  0  0  0  0  0  0  0  0  0  0  0
   60.0245   84.2005   30.2667 H   0  0  0  0  0  0  0  0  0  0  0  0
   61.2973   83.1536   31.0811 H   0  0  0  0  0  0  0  0  0  0  0  0
   54.1446   76.1377   30.1405 H   0  0  0  0  0  0  0  0  0  0  0  0
   54.1111   80.9703   27.1676 H   0  0  0  0  0  0  0  0  0  0  0  0
   52.7302   84.1504   24.9898 H   0  0  0  0  0  0  0  0  0  0  0  0
   54.8536   83.7713   26.8463 H   0  0  0  0  0  0  0  0  0  0  0  0
   55.2815   82.9556   25.3041 H   0  0  0  0  0  0  0  0  0  0  0  0
   54.8208   84.6918   25.3041 H   0  0  0  0  0  0  0  0  0  0  0  0
   53.1249   83.3187   27.7291 H   0  0  0  0  0  0  0  0  0  0  0  0
   51.6768   84.0471   26.9551 H   0  0  0  0  0  0  0  0  0  0  0  0
   51.8940   82.2640   26.9551 H   0  0  0  0  0  0  0  0  0  0  0  0
  1  2  1  0
  2  3  2  0
  3  4  1  0
  4  5  2  0
  5  6  1  0
  5  7  1  0
  7  8  2  0
  8  9  1  0
  9 10  2  0
 10 11  1  0
 11 12  1  0
 12 13  1  0
 13 14  1  0
 14 15  2  0
 15 16  1  0
 16 17  2  0
 17 18  1  0
 17 19  1  0
 19 20  1  0
 20 21  1  0
 21 22  1  0
 22 23  1  0
 23 24  1  0
 24 25  1  0
 24 26  1  0
 26 27  1  0
 21 28  1  0
 11 29  2  0
 29 30  1  0
 30 31  2  0
 31 32  1  0
  8 33  1  0
 33 34  2  0
 34 35  1  0
 35 36  1  0
 36 37  1  0
 36 38  1  0
 35  2  1  0
 34  4  1  0
 31  9  1  0
 18 13  2  0
 28 16  1  0
  1 39  1  0
  1 40  1  0
  1 41  1  0
  7 42  1  0
 12 43  1  0
 14 44  1  0
 15 45  1  0
 19 46  1  0
 19 47  1  0
 20 48  1  0
 20 49  1  0
 22 50  1  0
 22 51  1  0
 23 52  1  0
 23 53  1  0
 24 54  1  0
 25 55  1  0
 25 56  1  0
 26 57  1  0
 27 58  1  0
 28 59  1  0
 28 60  1  0
 30 61  1  0
 33 62  1  0
 36 63  1  0
 37 64  1  0
 37 65  1  0
 37 66  1  0
 38 67  1  0
 38 68  1  0
 38 69  1  0
M  END
>  <meeko>  (1) 
{"is_sidechain": false}

>  <smiles>  (1) 
Cc1nc2c(F)cc(-c3nc(Nc4ccc5c(n4)CCN(CCC(N)NO)C5)ncc3F)cc2n1C(C)C

>  <vina_score>  (1) 
-8.777

>  <job_id>  (1) 
caaee5a20b9cc769

$$$$

     RDKit          3D

 53 56  0  0  0  0  0  0  0  0999 V2000
   52.9040   81.0720   23.8020 C   0  0  0  0  0  0  0  0  0  0  0  0
   53.2630   79.9590   24.7190 C   0  0  0  0  0  0  0  0  0  0  0  0
   52.9350   78.7040   24.4910 N   0  0  0  0  0  0  0  0  0  0  0  0
   53.4500   77.9860   25.5270 C   0  0  0  0  0  0  0  0  0  0  0  0
   54.1080   78.7970   26.4290 C   0  0  0  0  0  0  0  0  0  0  0  0
   54.8010   78.4260   27.6540 C   0  0  0  0  0  0  0  0  0  0  0  0
   54.4170   77.3280   28.3920 C   0  0  0  0  0  0  0  0  0  0  0  0
   55.1600   77.0810   29.5190 C   0  0  0  0  0  0  0  0  0  0  0  0
   56.2050   77.8370   29.8960 N   0  0  0  0  0  0  0  0  0  0  0  0
   56.5210   78.8830   29.1030 C   0  0  0  0  0  0  0  0  0  0  0  0
   57.6830   79.7250   29.4760 C   0  0  0  0  0  0  0  0  0  0  0  0
   58.5720   80.1970   28.5310 C   0  0  0  0  0  0  0  0  0  0  0  0
   59.6020   80.9690   28.9990 C   0  0  0  0  0  0  0  0  0  0  0  0
   59.7700   81.2720   30.2960 N   0  0  0  0  0  0  0  0  0  0  0  0
   58.8780   80.7780   31.1640 C   0  0  0  0  0  0  0  0  0  0  0  0
   58.9570   81.0260   32.5310 N   0  0  0  0  0  0  0  0  0  0  0  0
   59.8260   80.6220   33.5490 C   0  0  0  0  0  0  0  0  0  0  0  0
   61.1550   80.2400   33.3350 C   0  0  0  0  0  0  0  0  0  0  0  0
   61.9860   79.8590   34.3970 C   0  0  0  0  0  0  0  0  0  0  0  0
   61.4990   79.8640   35.7070 C   0  0  0  0  0  0  0  0  0  0  0  0
   62.3380   79.4710   36.8710 C   0  0  0  0  0  0  0  0  0  0  0  0
   63.5720   80.0500   36.9850 N   0  0  0  0  0  0  0  0  0  0  0  0
   61.9350   78.6880   37.7210 O   0  0  0  0  0  0  0  0  0  0  0  0
   60.1720   80.2320   35.9390 C   0  0  0  0  0  0  0  0  0  0  0  0
   59.3510   80.6120   34.8700 C   0  0  0  0  0  0  0  0  0  0  0  0
   57.8400   80.0180   30.7930 N   0  0  0  0  0  0  0  0  0  0  0  0
   55.8450   79.2120   27.9810 N   0  0  0  0  0  0  0  0  0  0  0  0
   53.9550   80.0800   25.9120 N   0  0  0  0  0  0  0  0  0  0  0  0
   54.4230   81.3080   26.5550 C   0  0  0  0  0  0  0  0  0  0  0  0
   53.3100   82.3040   26.8950 C   0  0  0  0  0  0  0  0  0  0  0  0
   55.5550   81.9700   25.7700 C   0  0  0  0  0  0  0  0  0  0  0  0
   52.6190   81.9556   24.3919 H   0  0  0  0  0  0  0  0  0  0  0  0
   53.7684   81.3178   23.1677 H   0  0  0  0  0  0  0  0  0  0  0  0
   52.0589   80.7664   23.1677 H   0  0  0  0  0  0  0  0  0  0  0  0
   53.3535   76.8953   25.6319 H   0  0  0  0  0  0  0  0  0  0  0  0
   53.5701   76.6909   28.0972 H   0  0  0  0  0  0  0  0  0  0  0  0
   54.8860   76.2198   30.1461 H   0  0  0  0  0  0  0  0  0  0  0  0
   58.4593   79.9658   27.4615 H   0  0  0  0  0  0  0  0  0  0  0  0
   60.3300   81.3615   28.2738 H   0  0  0  0  0  0  0  0  0  0  0  0
   58.1620   81.5890   32.8000 H   0  0  0  0  0  0  0  0  0  0  0  0
   61.5562   80.2388   32.3108 H   0  0  0  0  0  0  0  0  0  0  0  0
   63.0245   79.5551   34.1991 H   0  0  0  0  0  0  0  0  0  0  0  0
   64.0640   79.8650   37.8500 H   0  0  0  0  0  0  0  0  0  0  0  0
   63.8180   80.8920   36.4850 H   0  0  0  0  0  0  0  0  0  0  0  0
   59.7709   80.2234   36.9632 H   0  0  0  0  0  0  0  0  0  0  0  0
   58.3109   80.9092   35.0698 H   0  0  0  0  0  0  0  0  0  0  0  0
   54.8287   80.9843   27.5249 H   0  0  0  0  0  0  0  0  0  0  0  0
   53.2151   82.3889   27.9876 H   0  0  0  0  0  0  0  0  0  0  0  0
   53.5567   83.2885   26.4708 H   0  0  0  0  0  0  0  0  0  0  0  0
   52.3589   81.9499   26.4708 H   0  0  0  0  0  0  0  0  0  0  0  0
   56.2864   82.3977   26.4715 H   0  0  0  0  0  0  0  0  0  0  0  0
   56.0501   81.2191   25.1368 H   0  0  0  0  0  0  0  0  0  0  0  0
   55.1433   82.7697   25.1368 H   0  0  0  0  0  0  0  0  0  0  0  0
  1  2  1  0
  2  3  2  0
  3  4  1  0
  4  5  2  0
  5  6  1  0
  6  7  1  0
  7  8  2  0
  8  9  1  0
  9 10  2  0
 10 11  1  0
 11 12  1  0
 12 13  2  0
 13 14  1  0
 14 15  2  0
 15 16  1  0
 16 17  1  0
 17 18  1  0
 18 19  2  0
 19 20  1  0
 20 21  1  0
 21 22  1  0
 21 23  2  0
 20 24  2  0
 24 25  1  0
 15 26  1  0
 10 27  1  0
  5 28  1  0
 28 29  1  0
 29 30  1  0
 29 31  1  0
 28  2  1  0
 27  6  2  0
 26 11  2  0
 25 17  2  0
  1 32  1  0
  1 33  1  0
  1 34  1  0
  4 35  1  0
  7 36  1  0
  8 37  1  0
 12 38  1  0
 13 39  1  0
 16 40  1  0
 18 41  1  0
 19 42  1  0
 22 43  1  0
 22 44  1  0
 24 45  1  0
 25 46  1  0
 29 47  1  0
 30 48  1  0
 30 49  1  0
 30 50  1  0
 31 51  1  0
 31 52  1  0
 31 53  1  0
M  END
>  <meeko>  (1) 
{"is_sidechain": false}

>  <smiles>  (1) 
Cc1ncc(-c2ccnc(-c3ccnc(Nc4ccc(C(N)=O)cc4)n3)n2)n1C(C)C

>  <vina_score>  (1) 
-8.582

>  <job_id>  (1) 
d84c3c0c5772b42a

$$$$

     RDKit          3D

 45 48  0  0  0  0  0  0  0  0999 V2000
   52.3810   75.5980   26.5600 C   0  0  0  0  0  0  0  0  0  0  0  0
   52.3690   76.6880   27.5990 C   0  0  0  0  0  0  0  0  0  0  0  0
   51.4450   76.7920   28.4060 O   0  0  0  0  0  0  0  0  0  0  0  0
   53.5210   77.6410   27.6340 C   0  0  0  0  0  0  0  0  0  0  0  0
   54.6150   77.3540   28.3710 C   0  0  0  0  0  0  0  0  0  0  0  0
   54.8170   76.0740   29.1450 C   0  0  0  0  0  0  0  0  0  0  0  0
   55.6990   78.3520   28.4080 C   0  0  0  0  0  0  0  0  0  0  0  0
   56.8590   78.2120   29.1450 C   0  0  0  0  0  0  0  0  0  0  0  0
   57.8580   79.1120   29.1710 N   0  0  0  0  0  0  0  0  0  0  0  0
   57.7130   80.2180   28.4410 C   0  0  0  0  0  0  0  0  0  0  0  0
   58.6830   81.2150   28.3940 N   0  0  0  0  0  0  0  0  0  0  0  0
   59.1880   81.9960   29.3610 C   0  0  0  0  0  0  0  0  0  0  0  0
   60.4110   81.8240   29.9650 C   0  0  0  0  0  0  0  0  0  0  0  0
   60.5670   82.8110   30.8920 O   0  0  0  0  0  0  0  0  0  0  0  0
   59.4130   83.5260   30.7900 C   0  0  0  0  0  0  0  0  0  0  0  0
   58.5600   83.0830   29.8950 N   0  0  0  0  0  0  0  0  0  0  0  0
   56.6210   80.4540   27.7000 N   0  0  0  0  0  0  0  0  0  0  0  0
   55.6290   79.5350   27.6910 C   0  0  0  0  0  0  0  0  0  0  0  0
   54.4690   79.8050   26.9100 N   0  0  0  0  0  0  0  0  0  0  0  0
   54.4180   81.0580   26.1370 C   0  0  0  0  0  0  0  0  0  0  0  0
   53.6050   82.1900   26.8020 C   0  0  0  0  0  0  0  0  0  0  0  0
   52.5650   82.6180   25.7700 C   0  0  0  0  0  0  0  0  0  0  0  0
   53.1740   82.2250   24.4340 C   0  0  0  0  0  0  0  0  0  0  0  0
   53.8240   80.8820   24.7300 C   0  0  0  0  0  0  0  0  0  0  0  0
   53.4200   78.8990   26.8380 C   0  0  0  0  0  0  0  0  0  0  0  0
   52.4170   79.0810   26.1490 O   0  0  0  0  0  0  0  0  0  0  0  0
   52.3918   74.6171   27.0577 H   0  0  0  0  0  0  0  0  0  0  0  0
   51.4819   75.6805   25.9317 H   0  0  0  0  0  0  0  0  0  0  0  0
   53.2781   75.7002   25.9317 H   0  0  0  0  0  0  0  0  0  0  0  0
   54.7832   76.2884   30.2234 H   0  0  0  0  0  0  0  0  0  0  0  0
   54.0204   75.3604   28.8878 H   0  0  0  0  0  0  0  0  0  0  0  0
   55.7947   75.6404   28.8878 H   0  0  0  0  0  0  0  0  0  0  0  0
   56.9734   77.3020   29.7522 H   0  0  0  0  0  0  0  0  0  0  0  0
   58.9980   81.2960   27.4370 H   0  0  0  0  0  0  0  0  0  0  0  0
   61.1368   81.0288   29.7395 H   0  0  0  0  0  0  0  0  0  0  0  0
   59.2098   84.4103   31.4119 H   0  0  0  0  0  0  0  0  0  0  0  0
   55.4805   81.3387   26.0884 H   0  0  0  0  0  0  0  0  0  0  0  0
   53.1111   81.8221   27.7135 H   0  0  0  0  0  0  0  0  0  0  0  0
   54.2497   83.0303   27.0990 H   0  0  0  0  0  0  0  0  0  0  0  0
   51.6137   82.0907   25.9343 H   0  0  0  0  0  0  0  0  0  0  0  0
   52.3358   83.6924   25.8265 H   0  0  0  0  0  0  0  0  0  0  0  0
   52.3980   82.1258   23.6607 H   0  0  0  0  0  0  0  0  0  0  0  0
   53.8831   82.9715   24.0469 H   0  0  0  0  0  0  0  0  0  0  0  0
   53.0765   80.0751   24.7193 H   0  0  0  0  0  0  0  0  0  0  0  0
   54.5817   80.6046   23.9824 H   0  0  0  0  0  0  0  0  0  0  0  0
  1  2  1  0
  2  3  2  0
  2  4  1  0
  4  5  2  0
  5  6  1  0
  5  7  1  0
  7  8  2  0
  8  9  1  0
  9 10  2  0
 10 11  1  0
 11 12  1  0
 12 13  2  0
 13 14  1  0
 14 15  1  0
 15 16  2  0
 10 17  1  0
 17 18  2  0
 18 19  1  0
 19 20  1  0
 20 21  1  0
 21 22  1  0
 22 23  1  0
 23 24  1  0
 19 25  1  0
 25 26  2  0
 25  4  1  0
 18  7  1  0
 24 20  1  0
 16 12  1  0
  1 27  1  0
  1 28  1  0
  1 29  1  0
  6 30  1  0
  6 31  1  0
  6 32  1  0
  8 33  1  0
 11 34  1  0
 13 35  1  0
 15 36  1  0
 20 37  1  0
 21 38  1  0
 21 39  1  0
 22 40  1  0
 22 41  1  0
 23 42  1  0
 23 43  1  0
 24 44  1  0
 24 45  1  0
M  END
>  <meeko>  (1) 
{"is_sidechain": false}

>  <smiles>  (1) 
CC(=O)c1c(C)c2cnc(Nc3cocn3)nc2n(C2CCCC2)c1=O

>  <vina_score>  (1) 
-8.909

>  <job_id>  (1) 
dd97f90d25683150

$$$$

     RDKit          3D

 47 49  0  0  0  0  0  0  0  0999 V2000
   53.3100   82.5660   27.2730 C   0  0  0  0  0  0  0  0  0  0  0  0
   53.4430   81.1530   27.3720 O   0  0  0  0  0  0  0  0  0  0  0  0
   53.3470   80.4200   26.2140 C   0  0  0  0  0  0  0  0  0  0  0  0
   52.7490   80.8920   25.0400 C   0  0  0  0  0  0  0  0  0  0  0  0
   52.7330   80.0970   23.8990 C   0  0  0  0  0  0  0  0  0  0  0  0
   52.1590   80.5610   22.7820 F   0  0  0  0  0  0  0  0  0  0  0  0
   53.3100   78.8360   23.8940 C   0  0  0  0  0  0  0  0  0  0  0  0
   53.9080   78.3570   25.0590 C   0  0  0  0  0  0  0  0  0  0  0  0
   53.9300   79.1300   26.2400 C   0  0  0  0  0  0  0  0  0  0  0  0
   54.5650   78.5730   27.4460 C   0  0  0  0  0  0  0  0  0  0  0  0
   55.8370   78.9960   27.6790 N   0  0  0  0  0  0  0  0  0  0  0  0
   56.4750   78.5240   28.7640 C   0  0  0  0  0  0  0  0  0  0  0  0
   57.7600   79.0280   28.9490 N   0  0  0  0  0  0  0  0  0  0  0  0
   58.3220   79.9660   29.8200 C   0  0  0  0  0  0  0  0  0  0  0  0
   57.8460   80.0290   31.1380 C   0  0  0  0  0  0  0  0  0  0  0  0
   58.3940   80.9260   32.0560 C   0  0  0  0  0  0  0  0  0  0  0  0
   57.7230   80.9820   33.8230 Br  0  0  0  0  0  0  0  0  0  0  0  0
   59.4320   81.7750   31.6860 C   0  0  0  0  0  0  0  0  0  0  0  0
   59.9350   81.7300   30.3810 C   0  0  0  0  0  0  0  0  0  0  0  0
   61.0640   82.6310   29.9530 C   0  0  0  0  0  0  0  0  0  0  0  0
   62.1050   83.0780   31.3520 S   0  0  0  0  0  0  0  0  0  0  0  0
   63.6570   83.5710   30.6160 C   0  0  0  0  0  0  0  0  0  0  0  0
   62.3580   81.8790   32.1300 O   0  0  0  0  0  0  0  0  0  0  0  0
   61.4780   84.3540   31.9530 N   0  0  0  0  0  0  0  0  0  0  0  0
   61.9580   84.7200   33.2730 C   0  0  0  0  0  0  0  0  0  0  0  0
   62.3630   85.0420   34.3090 N   0  0  0  0  0  0  0  0  0  0  0  0
   59.3650   80.8290   29.4620 C   0  0  0  0  0  0  0  0  0  0  0  0
   55.9260   77.6470   29.6190 N   0  0  0  0  0  0  0  0  0  0  0  0
   54.6710   77.2290   29.3500 C   0  0  0  0  0  0  0  0  0  0  0  0
   53.9440   77.6590   28.2710 C   0  0  0  0  0  0  0  0  0  0  0  0
   52.7170   77.1750   28.0360 F   0  0  0  0  0  0  0  0  0  0  0  0
   53.2690   83.0020   28.2821 H   0  0  0  0  0  0  0  0  0  0  0  0
   54.1733   82.9784   26.7302 H   0  0  0  0  0  0  0  0  0  0  0  0
   52.3849   82.8101   26.7302 H   0  0  0  0  0  0  0  0  0  0  0  0
   52.2915   81.8921   25.0197 H   0  0  0  0  0  0  0  0  0  0  0  0
   53.2961   78.2211   22.9820 H   0  0  0  0  0  0  0  0  0  0  0  0
   54.3708   77.3591   25.0578 H   0  0  0  0  0  0  0  0  0  0  0  0
   58.3840   78.5700   28.2980 H   0  0  0  0  0  0  0  0  0  0  0  0
   57.0296   79.3622   31.4523 H   0  0  0  0  0  0  0  0  0  0  0  0
   59.8560   82.4794   32.4168 H   0  0  0  0  0  0  0  0  0  0  0  0
   61.6757   82.1083   29.2029 H   0  0  0  0  0  0  0  0  0  0  0  0
   60.6346   83.5511   29.5299 H   0  0  0  0  0  0  0  0  0  0  0  0
   64.3825   83.8015   31.4100 H   0  0  0  0  0  0  0  0  0  0  0  0
   64.0438   82.7515   29.9925 H   0  0  0  0  0  0  0  0  0  0  0  0
   63.5000   84.4635   29.9925 H   0  0  0  0  0  0  0  0  0  0  0  0
   59.7503   80.8020   28.4320 H   0  0  0  0  0  0  0  0  0  0  0  0
   54.2066   76.5036   30.0343 H   0  0  0  0  0  0  0  0  0  0  0  0
  1  2  1  0
  2  3  1  0
  3  4  1  0
  4  5  2  0
  5  6  1  0
  5  7  1  0
  7  8  2  0
  8  9  1  0
  9 10  1  0
 10 11  2  0
 11 12  1  0
 12 13  1  0
 13 14  1  0
 14 15  1  0
 15 16  2  0
 16 17  1  0
 16 18  1  0
 18 19  2  0
 19 20  1  0
 20 21  1  0
 21 22  1  0
 21 23  2  0
 21 24  2  0
 24 25  1  0
 25 26  3  0
 19 27  1  0
 12 28  2  0
 28 29  1  0
 29 30  2  0
 30 31  1  0
  9  3  2  0
 30 10  1  0
 27 14  2  0
  1 32  1  0
  1 33  1  0
  1 34  1  0
  4 35  1  0
  7 36  1  0
  8 37  1  0
 13 38  1  0
 15 39  1  0
 18 40  1  0
 20 41  1  0
 20 42  1  0
 22 43  1  0
 22 44  1  0
 22 45  1  0
 27 46  1  0
 29 47  1  0
M  END
>  <meeko>  (1) 
{"is_sidechain": false}

>  <smiles>  (1) 
COc1cc(F)ccc1-c1nc(Nc2cc(Br)cc(CS(C)(=O)=NC#N)c2)ncc1F

>  <vina_score>  (1) 
-8.555

>  <job_id>  (1) 
df8b3ea9ea133a83

$$$$

     RDKit          3D

 48 49  0  0  0  0  0  0  0  0999 V2000
   57.8090   80.9820   33.8490 C   0  0  0  0  0  0  0  0  0  0  0  0
   59.1910   81.0530   33.4850 O   0  0  0  0  0  0  0  0  0  0  0  0
   59.3360   81.1910   32.1310 C   0  0  0  0  0  0  0  0  0  0  0  0
   58.8080   80.2030   31.2890 C   0  0  0  0  0  0  0  0  0  0  0  0
   58.9700   80.2620   29.8950 C   0  0  0  0  0  0  0  0  0  0  0  0
   58.3980   79.2540   29.1130 N   0  0  0  0  0  0  0  0  0  0  0  0
   57.1380   79.0560   28.5560 C   0  0  0  0  0  0  0  0  0  0  0  0
   56.2950   78.1240   29.0170 N   0  0  0  0  0  0  0  0  0  0  0  0
   55.0870   78.0440   28.4250 C   0  0  0  0  0  0  0  0  0  0  0  0
   54.6990   78.8360   27.3710 C   0  0  0  0  0  0  0  0  0  0  0  0
   52.9350   78.7060   26.7130 Br  0  0  0  0  0  0  0  0  0  0  0  0
   55.6450   79.7420   26.9240 C   0  0  0  0  0  0  0  0  0  0  0  0
   55.4110   80.6150   25.8470 N   0  0  0  0  0  0  0  0  0  0  0  0
   54.7390   81.9090   26.1820 C   0  0  2  0  0  0  0  0  0  0  0  0
   53.4950   82.1970   25.3480 C   0  0  0  0  0  0  0  0  0  0  0  0
   55.7650   83.0780   26.1870 C   0  0  1  0  0  0  0  0  0  0  0  0
   55.1230   84.4460   26.3900 C   0  0  0  0  0  0  0  0  0  0  0  0
   56.6850   82.8570   27.2710 O   0  0  0  0  0  0  0  0  0  0  0  0
   56.8440   79.8680   27.5260 N   0  0  0  0  0  0  0  0  0  0  0  0
   59.6840   81.3450   29.3730 C   0  0  0  0  0  0  0  0  0  0  0  0
   60.2360   82.3270   30.2070 C   0  0  0  0  0  0  0  0  0  0  0  0
   60.0700   82.2460   31.5920 C   0  0  0  0  0  0  0  0  0  0  0  0
   60.7630   83.4980   32.6530 S   0  0  0  0  0  0  0  0  0  0  0  0
   61.1580   84.8290   31.5380 C   0  0  0  0  0  0  0  0  0  0  0  0
   59.6270   84.0210   33.5620 N   0  0  0  0  0  0  0  0  0  0  0  0
   61.9990   82.9680   33.1940 O   0  0  0  0  0  0  0  0  0  0  0  0
   57.7183   80.9773   34.9452 H   0  0  0  0  0  0  0  0  0  0  0  0
   57.2770   81.8540   33.4408 H   0  0  0  0  0  0  0  0  0  0  0  0
   57.3692   80.0601   33.4408 H   0  0  0  0  0  0  0  0  0  0  0  0
   58.2537   79.3615   31.7301 H   0  0  0  0  0  0  0  0  0  0  0  0
   59.0130   78.5250   28.7800 H   0  0  0  0  0  0  0  0  0  0  0  0
   54.3704   77.3022   28.8074 H   0  0  0  0  0  0  0  0  0  0  0  0
   54.6680   80.1260   25.3270 H   0  0  0  0  0  0  0  0  0  0  0  0
   54.3482   81.8084   27.2053 H   0  0  0  0  0  0  0  0  0  0  0  0
   52.6434   82.3942   26.0158 H   0  0  0  0  0  0  0  0  0  0  0  0
   53.6747   83.0773   24.7133 H   0  0  0  0  0  0  0  0  0  0  0  0
   53.2696   81.3273   24.7133 H   0  0  0  0  0  0  0  0  0  0  0  0
   56.2566   83.0869   25.2030 H   0  0  0  0  0  0  0  0  0  0  0  0
   55.0273   84.6500   27.4667 H   0  0  0  0  0  0  0  0  0  0  0  0
   55.7523   85.2190   25.9249 H   0  0  0  0  0  0  0  0  0  0  0  0
   54.1262   84.4559   25.9249 H   0  0  0  0  0  0  0  0  0  0  0  0
   56.1590   82.8120   28.0880 H   0  0  0  0  0  0  0  0  0  0  0  0
   59.8153   81.4281   28.2840 H   0  0  0  0  0  0  0  0  0  0  0  0
   60.8012   83.1634   29.7701 H   0  0  0  0  0  0  0  0  0  0  0  0
   61.4241   85.7256   32.1170 H   0  0  0  0  0  0  0  0  0  0  0  0
   62.0080   84.5363   30.9041 H   0  0  0  0  0  0  0  0  0  0  0  0
   60.2859   85.0473   30.9041 H   0  0  0  0  0  0  0  0  0  0  0  0
   59.4390   83.3470   34.3070 H   0  0  0  0  0  0  0  0  0  0  0  0
  1  2  1  0
  2  3  1  0
  3  4  1  0
  4  5  2  0
  5  6  1  0
  6  7  1  0
  7  8  2  0
  8  9  1  0
  9 10  2  0
 10 11  1  0
 10 12  1  0
 12 13  1  0
 13 14  1  0
 14 15  1  0
 14 16  1  0
 16 17  1  0
 16 18  1  0
 12 19  2  0
  5 20  1  0
 20 21  2  0
 21 22  1  0
 22 23  1  0
 23 24  1  0
 23 25  2  0
 23 26  2  0
 22  3  2  0
 19  7  1  0
  1 27  1  0
  1 28  1  0
  1 29  1  0
  4 30  1  0
  6 31  1  0
  9 32  1  0
 13 33  1  0
 14 34  1  1
 15 35  1  0
 15 36  1  0
 15 37  1  0
 16 38  1  6
 17 39  1  0
 17 40  1  0
 17 41  1  0
 18 42  1  0
 20 43  1  0
 21 44  1  0
 24 45  1  0
 24 46  1  0
 24 47  1  0
 25 48  1  0
M  END
>  <meeko>  (1) 
{"is_sidechain": false}

>  <smiles>  (1) 
COc1cc(Nc2ncc(Br)c(N[C@H](C)[C@@H](C)O)n2)ccc1S(C)(=N)=O

>  <vina_score>  (1) 
-7.364

>  <job_id>  (1) 
e08ac362fa01e2e3

$$$$

     RDKit          3D

 59 62  0  0  0  0  0  0  0  0999 V2000
   55.6790   81.8210   26.2580 C   0  0  0  0  0  0  0  0  0  0  0  0
   56.3010   80.5500   26.8460 C   0  0  1  0  0  0  0  0  0  0  0  0
   57.0950   80.8420   28.0280 N   0  0  0  0  0  0  0  0  0  0  0  0
   58.2050   80.1000   28.3370 C   0  0  0  0  0  0  0  0  0  0  0  0
   58.5600   79.1490   27.6460 O   0  0  0  0  0  0  0  0  0  0  0  0
   58.8740   80.4830   29.4830 N   0  0  0  0  0  0  0  0  0  0  0  0
   58.4850   79.8780   30.7560 C   0  0  0  0  0  0  0  0  0  0  0  0
   58.2950   80.9430   31.8350 C   0  0  0  0  0  0  0  0  0  0  0  0
   59.4960   81.8300   31.9180 C   0  0  0  0  0  0  0  0  0  0  0  0
   59.8250   82.5380   33.0500 C   0  0  0  0  0  0  0  0  0  0  0  0
   60.8900   83.3560   33.1330 N   0  0  0  0  0  0  0  0  0  0  0  0
   61.6450   83.4850   32.0370 C   0  0  0  0  0  0  0  0  0  0  0  0
   62.7280   84.3360   32.1600 N   0  0  0  0  0  0  0  0  0  0  0  0
   63.0530   85.1780   31.0140 C   0  0  1  0  0  0  0  0  0  0  0  0
   63.3720   86.5970   31.5100 C   0  0  0  0  0  0  0  0  0  0  0  0
   64.8710   86.7950   31.6550 C   0  0  0  0  0  0  0  0  0  0  0  0
   65.5760   86.6240   30.4240 O   0  0  0  0  0  0  0  0  0  0  0  0
   64.9840   85.6930   29.5010 C   0  0  1  0  0  0  0  0  0  0  0  0
   66.1160   85.1330   28.6360 C   0  0  0  0  0  0  0  0  0  0  0  0
   65.7070   85.1070   27.2700 O   0  0  0  0  0  0  0  0  0  0  0  0
   64.2250   84.5840   30.2170 C   0  0  0  0  0  0  0  0  0  0  0  0
   61.4080   82.8400   30.8870 N   0  0  0  0  0  0  0  0  0  0  0  0
   60.3270   82.0310   30.8310 C   0  0  0  0  0  0  0  0  0  0  0  0
   60.0600   81.3460   29.5080 C   0  0  0  0  0  0  0  0  0  0  0  0
   55.2750   79.4840   27.1940 C   0  0  0  0  0  0  0  0  0  0  0  0
   54.1290   79.3460   26.3950 C   0  0  0  0  0  0  0  0  0  0  0  0
   53.1770   78.3590   26.6690 C   0  0  0  0  0  0  0  0  0  0  0  0
   53.3610   77.4850   27.7410 C   0  0  0  0  0  0  0  0  0  0  0  0
   52.1470   76.2880   28.0220 Cl  0  0  0  0  0  0  0  0  0  0  0  0
   54.5030   77.5980   28.5380 C   0  0  0  0  0  0  0  0  0  0  0  0
   54.8100   76.5450   29.8740 Cl  0  0  0  0  0  0  0  0  0  0  0  0
   55.4550   78.5880   28.2610 C   0  0  0  0  0  0  0  0  0  0  0  0
   55.3552   82.4826   27.0750 H   0  0  0  0  0  0  0  0  0  0  0  0
   56.4244   82.3412   25.6384 H   0  0  0  0  0  0  0  0  0  0  0  0
   54.8109   81.5516   25.6384 H   0  0  0  0  0  0  0  0  0  0  0  0
   56.9475   80.1522   26.0499 H   0  0  0  0  0  0  0  0  0  0  0  0
   57.0860   81.8000   28.3350 H   0  0  0  0  0  0  0  0  0  0  0  0
   57.5402   79.3313   30.6203 H   0  0  0  0  0  0  0  0  0  0  0  0
   59.2844   79.1939   31.0768 H   0  0  0  0  0  0  0  0  0  0  0  0
   57.4123   81.5520   31.5901 H   0  0  0  0  0  0  0  0  0  0  0  0
   58.1561   80.4434   32.8051 H   0  0  0  0  0  0  0  0  0  0  0  0
   59.1823   82.4297   33.9361 H   0  0  0  0  0  0  0  0  0  0  0  0
   63.4840   83.7850   32.5530 H   0  0  0  0  0  0  0  0  0  0  0  0
   62.1902   85.2245   30.3332 H   0  0  0  0  0  0  0  0  0  0  0  0
   62.9802   87.3279   30.7873 H   0  0  0  0  0  0  0  0  0  0  0  0
   62.9013   86.7401   32.4938 H   0  0  0  0  0  0  0  0  0  0  0  0
   65.0562   87.8135   32.0270 H   0  0  0  0  0  0  0  0  0  0  0  0
   65.2388   86.0304   32.3551 H   0  0  0  0  0  0  0  0  0  0  0  0
   64.2375   86.2043   28.8755 H   0  0  0  0  0  0  0  0  0  0  0  0
   67.0058   85.7714   28.7395 H   0  0  0  0  0  0  0  0  0  0  0  0
   66.3554   84.1110   28.9649 H   0  0  0  0  0  0  0  0  0  0  0  0
   64.8830   84.5810   27.2610 H   0  0  0  0  0  0  0  0  0  0  0  0
   63.8365   83.8709   29.4750 H   0  0  0  0  0  0  0  0  0  0  0  0
   64.9072   84.0684   30.9089 H   0  0  0  0  0  0  0  0  0  0  0  0
   59.9317   82.1240   28.7411 H   0  0  0  0  0  0  0  0  0  0  0  0
   60.9220   80.6879   29.3240 H   0  0  0  0  0  0  0  0  0  0  0  0
   53.9778   80.0235   25.5417 H   0  0  0  0  0  0  0  0  0  0  0  0
   52.2805   78.2714   26.0376 H   0  0  0  0  0  0  0  0  0  0  0  0
   56.3558   78.6647   28.8876 H   0  0  0  0  0  0  0  0  0  0  0  0
  1  2  1  0
  2  3  1  0
  3  4  1  0
  4  5  2  0
  4  6  1  0
  6  7  1  0
  7  8  1  0
  8  9  1  0
  9 10  2  0
 10 11  1  0
 11 12  2  0
 12 13  1  0
 13 14  1  0
 14 15  1  0
 15 16  1  0
 16 17  1  0
 17 18  1  0
 18 19  1  0
 19 20  1  0
 18 21  1  0
 12 22  1  0
 22 23  2  0
 23 24  1  0
  2 25  1  0
 25 26  1  0
 26 27  2  0
 27 28  1  0
 28 29  1  0
 28 30  2  0
 30 31  1  0
 30 32  1  0
 24  6  1  0
 32 25  2  0
 23  9  1  0
 21 14  1  0
  1 33  1  0
  1 34  1  0
  1 35  1  0
  2 36  1  6
  3 37  1  0
  7 38  1  0
  7 39  1  0
  8 40  1  0
  8 41  1  0
 10 42  1  0
 13 43  1  0
 14 44  1  6
 15 45  1  0
 15 46  1  0
 16 47  1  0
 16 48  1  0
 18 49  1  6
 19 50  1  0
 19 51  1  0
 20 52  1  0
 21 53  1  0
 21 54  1  0
 24 55  1  0
 24 56  1  0
 26 57  1  0
 27 58  1  0
 32 59  1  0
M  END
>  <meeko>  (1) 
{"is_sidechain": false}

>  <smiles>  (1) 
C[C@@H](NC(=O)N1CCc2cnc(N[C@H]3CCO[C@@H](CO)C3)nc2C1)c1ccc(Cl)c(Cl)c1

>  <vina_score>  (1) 
-8.946

>  <job_id>  (1) 
e85b073451f5bdf2

$$$$

     RDKit          3D

 60 63  0  0  0  0  0  0  0  0999 V2000
   66.5800   82.8410   30.5500 C   0  0  0  0  0  0  0  0  0  0  0  0
   65.3380   82.0860   30.6470 N   0  0  0  0  0  0  0  0  0  0  0  0
   64.2700   82.8670   31.2730 C   0  0  1  0  0  0  0  0  0  0  0  0
   63.8050   84.0050   30.3560 C   0  0  0  0  0  0  0  0  0  0  0  0
   62.4720   84.4150   30.9720 C   0  0  0  0  0  0  0  0  0  0  0  0
   61.9460   83.1900   31.5610 N   0  0  0  0  0  0  0  0  0  0  0  0
   60.6300   82.9020   31.8650 C   0  0  0  0  0  0  0  0  0  0  0  0
   60.0100   83.4590   32.7660 O   0  0  0  0  0  0  0  0  0  0  0  0
   59.9380   81.8590   31.0750 C   0  0  0  0  0  0  0  0  0  0  0  0
   59.9130   81.9040   29.6820 C   0  0  0  0  0  0  0  0  0  0  0  0
   59.2370   80.9090   28.9690 C   0  0  0  0  0  0  0  0  0  0  0  0
   58.5590   79.8660   29.6260 C   0  0  0  0  0  0  0  0  0  0  0  0
   57.9180   78.8970   28.8480 N   0  0  0  0  0  0  0  0  0  0  0  0
   56.6030   78.4570   28.7350 C   0  0  0  0  0  0  0  0  0  0  0  0
   56.0410   77.6440   29.6450 N   0  0  0  0  0  0  0  0  0  0  0  0
   54.7560   77.2790   29.4490 C   0  0  0  0  0  0  0  0  0  0  0  0
   54.0160   77.6860   28.3730 C   0  0  0  0  0  0  0  0  0  0  0  0
   52.7470   77.2960   28.2100 F   0  0  0  0  0  0  0  0  0  0  0  0
   54.6710   78.5050   27.4830 C   0  0  0  0  0  0  0  0  0  0  0  0
   54.0370   79.0410   26.2900 C   0  0  0  0  0  0  0  0  0  0  0  0
   53.3780   78.3600   25.2890 C   0  0  0  0  0  0  0  0  0  0  0  0
   52.9280   79.2100   24.3230 N   0  0  0  0  0  0  0  0  0  0  0  0
   53.2650   80.4210   24.7150 C   0  0  0  0  0  0  0  0  0  0  0  0
   52.9320   81.6470   23.9450 C   0  0  0  0  0  0  0  0  0  0  0  0
   53.9300   80.3780   25.9300 N   0  0  0  0  0  0  0  0  0  0  0  0
   54.4030   81.5050   26.7350 C   0  0  0  0  0  0  0  0  0  0  0  0
   53.2970   82.4810   27.1390 C   0  0  0  0  0  0  0  0  0  0  0  0
   55.5920   82.2240   26.0980 C   0  0  0  0  0  0  0  0  0  0  0  0
   55.9530   78.9020   27.6470 N   0  0  0  0  0  0  0  0  0  0  0  0
   58.5820   79.8550   31.0260 C   0  0  0  0  0  0  0  0  0  0  0  0
   59.2550   80.8470   31.7490 C   0  0  0  0  0  0  0  0  0  0  0  0
   62.9450   82.1330   31.5380 C   0  0  0  0  0  0  0  0  0  0  0  0
   66.9516   83.0669   31.5604 H   0  0  0  0  0  0  0  0  0  0  0  0
   67.3297   82.2456   30.0082 H   0  0  0  0  0  0  0  0  0  0  0  0
   66.3966   83.7806   30.0082 H   0  0  0  0  0  0  0  0  0  0  0  0
   65.0470   81.8010   29.7120 H   0  0  0  0  0  0  0  0  0  0  0  0
   64.7512   83.1643   32.2164 H   0  0  0  0  0  0  0  0  0  0  0  0
   64.5203   84.8405   30.3681 H   0  0  0  0  0  0  0  0  0  0  0  0
   63.7225   83.7065   29.3005 H   0  0  0  0  0  0  0  0  0  0  0  0
   62.6214   85.1840   31.7442 H   0  0  0  0  0  0  0  0  0  0  0  0
   61.7857   84.8488   30.2298 H   0  0  0  0  0  0  0  0  0  0  0  0
   60.4226   82.7184   29.1462 H   0  0  0  0  0  0  0  0  0  0  0  0
   59.2353   80.9426   27.8695 H   0  0  0  0  0  0  0  0  0  0  0  0
   58.4780   78.4220   28.1540 H   0  0  0  0  0  0  0  0  0  0  0  0
   54.2804   76.6215   30.1917 H   0  0  0  0  0  0  0  0  0  0  0  0
   53.2336   77.2696   25.2719 H   0  0  0  0  0  0  0  0  0  0  0  0
   52.7089   82.4684   24.6419 H   0  0  0  0  0  0  0  0  0  0  0  0
   53.7870   81.9257   23.3115 H   0  0  0  0  0  0  0  0  0  0  0  0
   52.0535   81.4548   23.3115 H   0  0  0  0  0  0  0  0  0  0  0  0
   54.7611   81.0536   27.6720 H   0  0  0  0  0  0  0  0  0  0  0  0
   53.2373   82.5337   28.2361 H   0  0  0  0  0  0  0  0  0  0  0  0
   53.5234   83.4791   26.7357 H   0  0  0  0  0  0  0  0  0  0  0  0
   52.3349   82.1322   26.7357 H   0  0  0  0  0  0  0  0  0  0  0  0
   56.2470   82.6201   26.8879 H   0  0  0  0  0  0  0  0  0  0  0  0
   56.1571   81.5161   25.4738 H   0  0  0  0  0  0  0  0  0  0  0  0
   55.2275   83.0532   25.4738 H   0  0  0  0  0  0  0  0  0  0  0  0
   58.0614   79.0517   31.5679 H   0  0  0  0  0  0  0  0  0  0  0  0
   59.2451   80.8283   32.8488 H   0  0  0  0  0  0  0  0  0  0  0  0
   62.9776   81.6067   32.5034 H   0  0  0  0  0  0  0  0  0  0  0  0
   62.7294   81.3679   30.7776 H   0  0  0  0  0  0  0  0  0  0  0  0
  1  2  1  0
  2  3  1  0
  3  4  1  0
  4  5  1  0
  5  6  1  0
  6  7  1  0
  7  8  2  0
  7  9  1  0
  9 10  1  0
 10 11  2  0
 11 12  1  0
 12 13  1  0
 13 14  1  0
 14 15  2  0
 15 16  1  0
 16 17  2  0
 17 18  1  0
 17 19  1  0
 19 20  1  0
 20 21  2  0
 21 22  1  0
 22 23  2  0
 23 24  1  0
 23 25  1  0
 25 26  1  0
 26 27  1  0
 26 28  1  0
 19 29  2  0
 12 30  2  0
 30 31  1  0
  6 32  1  0
 32  3  1  0
 31  9  2  0
 29 14  1  0
 25 20  1  0
  1 33  1  0
  1 34  1  0
  1 35  1  0
  2 36  1  0
  3 37  1  1
  4 38  1  0
  4 39  1  0
  5 40  1  0
  5 41  1  0
 10 42  1  0
 11 43  1  0
 13 44  1  0
 16 45  1  0
 21 46  1  0
 24 47  1  0
 24 48  1  0
 24 49  1  0
 26 50  1  0
 27 51  1  0
 27 52  1  0
 27 53  1  0
 28 54  1  0
 28 55  1  0
 28 56  1  0
 30 57  1  0
 31 58  1  0
 32 59  1  0
 32 60  1  0
M  END
>  <meeko>  (1) 
{"is_sidechain": false}

>  <smiles>  (1) 
CN[C@H]1CCN(C(=O)c2ccc(Nc3ncc(F)c(-c4cnc(C)n4C(C)C)n3)cc2)C1

>  <vina_score>  (1) 
-9.308

>  <job_id>  (1) 
ea94986387d862ec

$$$$

     RDKit          3D

 52 55  0  0  0  0  0  0  0  0999 V2000
   53.3100   81.4720   27.2670 O   0  0  0  0  0  0  0  0  0  0  0  0
   53.2390   80.7020   26.1340 C   0  0  0  0  0  0  0  0  0  0  0  0
   52.6450   81.3190   25.0310 C   0  0  0  0  0  0  0  0  0  0  0  0
   52.5070   80.6070   23.8510 C   0  0  0  0  0  0  0  0  0  0  0  0
   51.9350   81.1870   22.7890 F   0  0  0  0  0  0  0  0  0  0  0  0
   52.9500   79.2960   23.7600 C   0  0  0  0  0  0  0  0  0  0  0  0
   53.5520   78.6870   24.8680 C   0  0  0  0  0  0  0  0  0  0  0  0
   53.7300   79.3760   26.0880 C   0  0  0  0  0  0  0  0  0  0  0  0
   54.3910   78.7340   27.2530 C   0  0  0  0  0  0  0  0  0  0  0  0
   55.6670   79.1540   27.4980 N   0  0  0  0  0  0  0  0  0  0  0  0
   56.3110   78.6290   28.5690 C   0  0  0  0  0  0  0  0  0  0  0  0
   57.7320   79.1040   28.8600 C   0  0  0  0  0  0  0  0  0  0  0  0
   57.8970   79.4530   30.2750 N   0  0  0  0  0  0  0  0  0  0  0  0
   58.8290   80.4330   30.6300 C   0  0  0  0  0  0  0  0  0  0  0  0
   59.2880   80.6230   31.9370 C   0  0  0  0  0  0  0  0  0  0  0  0
   60.2770   81.5720   32.2300 C   0  0  0  0  0  0  0  0  0  0  0  0
   60.8540   82.3370   31.2110 C   0  0  0  0  0  0  0  0  0  0  0  0
   61.9310   83.3550   31.5190 C   0  0  0  0  0  0  0  0  0  0  0  0
   63.1120   83.2370   30.6490 N   0  0  0  0  0  0  0  0  0  0  0  0
   63.9100   84.4850   30.6450 C   0  0  0  0  0  0  0  0  0  0  0  0
   65.3760   84.2250   30.2690 C   0  0  0  0  0  0  0  0  0  0  0  0
   66.0500   83.3920   31.2240 O   0  0  0  0  0  0  0  0  0  0  0  0
   65.1740   82.4640   31.8760 C   0  0  0  0  0  0  0  0  0  0  0  0
   63.9530   82.0820   31.0240 C   0  0  0  0  0  0  0  0  0  0  0  0
   60.4330   82.1200   29.8950 C   0  0  0  0  0  0  0  0  0  0  0  0
   59.4450   81.1720   29.6120 C   0  0  0  0  0  0  0  0  0  0  0  0
   55.7920   77.6760   29.3750 N   0  0  0  0  0  0  0  0  0  0  0  0
   54.5420   77.2660   29.0860 C   0  0  0  0  0  0  0  0  0  0  0  0
   53.7970   77.7620   28.0420 C   0  0  0  0  0  0  0  0  0  0  0  0
   52.5680   77.2830   27.8140 F   0  0  0  0  0  0  0  0  0  0  0  0
   53.7280   82.3180   27.0020 H   0  0  0  0  0  0  0  0  0  0  0  0
   52.2909   82.3582   25.0985 H   0  0  0  0  0  0  0  0  0  0  0  0
   52.8289   78.7365   22.8207 H   0  0  0  0  0  0  0  0  0  0  0  0
   53.8951   77.6451   24.7861 H   0  0  0  0  0  0  0  0  0  0  0  0
   58.4381   78.3002   28.6043 H   0  0  0  0  0  0  0  0  0  0  0  0
   57.9292   80.0015   28.2553 H   0  0  0  0  0  0  0  0  0  0  0  0
   57.9940   78.6080   30.8390 H   0  0  0  0  0  0  0  0  0  0  0  0
   58.8648   80.0160   32.7509 H   0  0  0  0  0  0  0  0  0  0  0  0
   60.6024   81.7165   33.2708 H   0  0  0  0  0  0  0  0  0  0  0  0
   61.5053   84.3616   31.3945 H   0  0  0  0  0  0  0  0  0  0  0  0
   62.2672   83.1706   32.5500 H   0  0  0  0  0  0  0  0  0  0  0  0
   63.4742   85.1837   29.9157 H   0  0  0  0  0  0  0  0  0  0  0  0
   63.8879   84.9075   31.6604 H   0  0  0  0  0  0  0  0  0  0  0  0
   65.4057   83.7305   29.2868 H   0  0  0  0  0  0  0  0  0  0  0  0
   65.8928   85.1958   30.2494 H   0  0  0  0  0  0  0  0  0  0  0  0
   65.7410   81.5494   32.1041 H   0  0  0  0  0  0  0  0  0  0  0  0
   64.7970   82.9545   32.7856 H   0  0  0  0  0  0  0  0  0  0  0  0
   64.3089   81.5968   30.1032 H   0  0  0  0  0  0  0  0  0  0  0  0
   63.3294   81.4120   31.6341 H   0  0  0  0  0  0  0  0  0  0  0  0
   60.8829   82.7000   29.0758 H   0  0  0  0  0  0  0  0  0  0  0  0
   59.1450   81.0029   28.5673 H   0  0  0  0  0  0  0  0  0  0  0  0
   54.0911   76.4897   29.7217 H   0  0  0  0  0  0  0  0  0  0  0  0
  1  2  1  0
  2  3  1  0
  3  4  2  0
  4  5  1  0
  4  6  1  0
  6  7  2  0
  7  8  1  0
  8  9  1  0
  9 10  2  0
 10 11  1  0
 11 12  1  0
 12 13  1  0
 13 14  1  0
 14 15  1  0
 15 16  2  0
 16 17  1  0
 17 18  1  0
 18 19  1  0
 19 20  1  0
 20 21  1  0
 21 22  1  0
 22 23  1  0
 23 24  1  0
 17 25  2  0
 25 26  1  0
 11 27  2  0
 27 28  1  0
 28 29  2  0
 29 30  1  0
  8  2  2  0
 29  9  1  0
 26 14  2  0
 24 19  1  0
  1 31  1  0
  3 32  1  0
  6 33  1  0
  7 34  1  0
 12 35  1  0
 12 36  1  0
 13 37  1  0
 15 38  1  0
 16 39  1  0
 18 40  1  0
 18 41  1  0
 20 42  1  0
 20 43  1  0
 21 44  1  0
 21 45  1  0
 23 46  1  0
 23 47  1  0
 24 48  1  0
 24 49  1  0
 25 50  1  0
 26 51  1  0
 28 52  1  0
M  END
>  <meeko>  (1) 
{"is_sidechain": false}

>  <smiles>  (1) 
Oc1cc(F)ccc1-c1nc(CNc2ccc(CN3CCOCC3)cc2)ncc1F

>  <vina_score>  (1) 
-8.757

>  <job_id>  (1) 
eb626f4118d6b4b5

$$$$

     RDKit          3D

 38 41  0  0  0  0  0  0  0  0999 V2000
   62.3440   82.8570   33.3320 C   0  0  0  0  0  0  0  0  0  0  0  0
   62.2500   82.9180   31.5620 S   0  0  0  0  0  0  0  0  0  0  0  0
   61.9560   84.2840   31.1700 O   0  0  0  0  0  0  0  0  0  0  0  0
   63.4020   82.2210   31.0200 O   0  0  0  0  0  0  0  0  0  0  0  0
   60.8140   81.9370   31.1940 C   0  0  0  0  0  0  0  0  0  0  0  0
   60.0910   81.3570   32.2390 C   0  0  0  0  0  0  0  0  0  0  0  0
   58.9690   80.5800   31.9450 C   0  0  0  0  0  0  0  0  0  0  0  0
   58.5810   80.3650   30.6190 C   0  0  0  0  0  0  0  0  0  0  0  0
   57.4440   79.5960   30.3480 N   0  0  0  0  0  0  0  0  0  0  0  0
   57.0930   79.5220   29.1060 C   0  0  0  0  0  0  0  0  0  0  0  0
   55.9710   78.7000   28.7170 C   0  0  0  0  0  0  0  0  0  0  0  0
   55.7070   77.4690   29.3100 C   0  0  0  0  0  0  0  0  0  0  0  0
   56.3100   76.7770   30.2700 O   0  0  0  0  0  0  0  0  0  0  0  0
   54.5620   76.9450   28.7620 N   0  0  0  0  0  0  0  0  0  0  0  0
   54.0580   77.7850   27.8080 C   0  0  0  0  0  0  0  0  0  0  0  0
   52.9350   77.7030   26.9800 C   0  0  0  0  0  0  0  0  0  0  0  0
   52.7200   78.7530   26.0570 C   0  0  0  0  0  0  0  0  0  0  0  0
   53.6180   79.8380   25.9570 C   0  0  0  0  0  0  0  0  0  0  0  0
   53.5580   80.9120   25.0860 N   0  0  0  0  0  0  0  0  0  0  0  0
   54.6030   81.6840   25.2960 C   0  0  0  0  0  0  0  0  0  0  0  0
   55.7000   81.1630   26.5120 S   0  0  0  0  0  0  0  0  0  0  0  0
   54.7100   79.8580   26.8110 C   0  0  0  0  0  0  0  0  0  0  0  0
   54.9250   78.8650   27.7400 C   0  0  0  0  0  0  0  0  0  0  0  0
   59.3150   80.9540   29.5830 C   0  0  0  0  0  0  0  0  0  0  0  0
   60.4390   81.7320   29.8640 C   0  0  0  0  0  0  0  0  0  0  0  0
   61.4952   83.4078   33.7635 H   0  0  0  0  0  0  0  0  0  0  0  0
   62.3087   81.8093   33.6652 H   0  0  0  0  0  0  0  0  0  0  0  0
   63.2864   83.3161   33.6652 H   0  0  0  0  0  0  0  0  0  0  0  0
   60.4024   81.5109   33.2827 H   0  0  0  0  0  0  0  0  0  0  0  0
   58.3853   80.1332   32.7634 H   0  0  0  0  0  0  0  0  0  0  0  0
   57.6502   80.0864   28.3437 H   0  0  0  0  0  0  0  0  0  0  0  0
   57.2230   77.0990   30.3670 H   0  0  0  0  0  0  0  0  0  0  0  0
   54.1570   76.0630   29.0430 H   0  0  0  0  0  0  0  0  0  0  0  0
   52.2421   76.8511   27.0440 H   0  0  0  0  0  0  0  0  0  0  0  0
   51.8353   78.7237   25.4039 H   0  0  0  0  0  0  0  0  0  0  0  0
   54.7651   82.6104   24.7254 H   0  0  0  0  0  0  0  0  0  0  0  0
   59.0034   80.8025   28.5390 H   0  0  0  0  0  0  0  0  0  0  0  0
   61.0237   82.1792   29.0466 H   0  0  0  0  0  0  0  0  0  0  0  0
  1  2  1  0
  2  3  2  0
  2  4  2  0
  2  5  1  0
  5  6  1  0
  6  7  2  0
  7  8  1  0
  8  9  1  0
  9 10  2  3
 10 11  1  0
 11 12  2  0
 12 13  1  0
 12 14  1  0
 14 15  1  0
 15 16  2  0
 16 17  1  0
 17 18  2  0
 18 19  1  0
 19 20  2  0
 20 21  1  0
 21 22  1  0
 22 23  2  0
  8 24  2  0
 24 25  1  0
 25  5  2  0
 23 11  1  0
 23 15  1  0
 22 18  1  0
  1 26  1  0
  1 27  1  0
  1 28  1  0
  6 29  1  0
  7 30  1  0
 10 31  1  0
 13 32  1  0
 14 33  1  0
 16 34  1  0
 17 35  1  0
 20 36  1  0
 24 37  1  0
 25 38  1  0
M  END
>  <meeko>  (1) 
{"is_sidechain": false}

>  <smiles>  (1) 
CS(=O)(=O)c1ccc(N=Cc2c(O)[nH]c3ccc4ncsc4c23)cc1

>  <vina_score>  (1) 
-7.954

>  <job_id>  (1) 
eda78648e854755a

$$$$

     RDKit          3D

 70 75  0  0  0  0  0  0  0  0999 V2000
   55.0800   77.1740   29.1830 C   0  0  0  0  0  0  0  0  0  0  0  0
   55.5110   78.1300   28.0620 C   0  0  0  0  0  0  0  0  0  0  0  0
   56.8700   78.7320   28.4490 C   0  0  0  0  0  0  0  0  0  0  0  0
   54.4460   79.2320   27.7790 C   0  0  0  0  0  0  0  0  0  0  0  0
   55.0620   80.5390   27.2330 C   0  0  0  0  0  0  0  0  0  0  0  0
   54.8850   80.7040   25.7220 C   0  0  0  0  0  0  0  0  0  0  0  0
   53.4640   80.6970   25.3720 N   0  0  0  0  0  0  0  0  0  0  0  0
   52.9930   81.3490   24.2440 C   0  0  0  0  0  0  0  0  0  0  0  0
   52.8220   80.7080   23.0170 C   0  0  0  0  0  0  0  0  0  0  0  0
   52.3420   81.3980   21.8970 C   0  0  0  0  0  0  0  0  0  0  0  0
   52.0240   82.7490   21.9940 C   0  0  0  0  0  0  0  0  0  0  0  0
   51.5500   83.3960   20.8420 N   0  0  0  0  0  0  0  0  0  0  0  0
   51.4660   84.7750   20.6390 C   0  0  0  0  0  0  0  0  0  0  0  0
   50.3600   85.4520   21.0010 N   0  0  0  0  0  0  0  0  0  0  0  0
   50.2900   86.7800   20.7780 C   0  0  0  0  0  0  0  0  0  0  0  0
   51.3430   87.4250   20.1430 C   0  0  0  0  0  0  0  0  0  0  0  0
   51.6540   88.7530   19.7700 C   0  0  0  0  0  0  0  0  0  0  0  0
   52.9080   88.7470   19.1870 C   0  0  0  0  0  0  0  0  0  0  0  0
   53.3370   87.4280   19.1420 N   0  0  0  0  0  0  0  0  0  0  0  0
   52.4130   86.6270   19.7700 C   0  0  0  0  0  0  0  0  0  0  0  0
   52.5220   85.3080   19.9960 N   0  0  0  0  0  0  0  0  0  0  0  0
   54.6630   87.0520   18.5980 C   0  0  0  0  0  0  0  0  0  0  0  0
   55.6670   86.9300   19.7740 C   0  0  0  0  0  0  0  0  0  0  0  0
   57.0480   86.4260   19.3530 C   0  0  0  0  0  0  0  0  0  0  0  0
   56.9680   85.1330   18.5480 C   0  0  0  0  0  0  0  0  0  0  0  0
   56.0240   85.2570   17.3560 C   0  0  0  0  0  0  0  0  0  0  0  0
   54.6340   85.7210   17.7960 C   0  0  0  0  0  0  0  0  0  0  0  0
   55.0860   88.1860   17.6120 C   0  0  0  0  0  0  0  0  0  0  0  0
   54.8760   89.5230   18.1290 N   0  0  0  0  0  0  0  0  0  0  0  0
   53.6860   89.8660   18.7190 C   0  0  0  0  0  0  0  0  0  0  0  0
   53.3580   91.0420   18.8240 O   0  0  0  0  0  0  0  0  0  0  0  0
   52.1840   83.4040   23.1560 N   0  0  0  0  0  0  0  0  0  0  0  0
   52.6500   82.7040   24.2250 C   0  0  0  0  0  0  0  0  0  0  0  0
   52.5600   79.8830   26.1900 C   0  0  0  0  0  0  0  0  0  0  0  0
   53.3260   78.7350   26.8440 C   0  0  0  0  0  0  0  0  0  0  0  0
   55.2883   77.6361   30.1593 H   0  0  0  0  0  0  0  0  0  0  0  0
   54.0026   76.9696   29.0965 H   0  0  0  0  0  0  0  0  0  0  0  0
   55.6402   76.2313   29.0965 H   0  0  0  0  0  0  0  0  0  0  0  0
   55.6043   77.5696   27.1200 H   0  0  0  0  0  0  0  0  0  0  0  0
   56.9555   78.7699   29.5450 H   0  0  0  0  0  0  0  0  0  0  0  0
   57.6777   78.1075   28.0396 H   0  0  0  0  0  0  0  0  0  0  0  0
   56.9501   79.7498   28.0396 H   0  0  0  0  0  0  0  0  0  0  0  0
   53.9992   79.4625   28.7574 H   0  0  0  0  0  0  0  0  0  0  0  0
   54.5796   81.3898   27.7364 H   0  0  0  0  0  0  0  0  0  0  0  0
   56.1429   80.4992   27.4329 H   0  0  0  0  0  0  0  0  0  0  0  0
   55.3314   81.6586   25.4067 H   0  0  0  0  0  0  0  0  0  0  0  0
   55.3830   79.8672   25.2105 H   0  0  0  0  0  0  0  0  0  0  0  0
   53.0690   79.6398   22.9274 H   0  0  0  0  0  0  0  0  0  0  0  0
   52.2162   80.8713   20.9395 H   0  0  0  0  0  0  0  0  0  0  0  0
   51.9590   83.0080   20.0050 H   0  0  0  0  0  0  0  0  0  0  0  0
   49.4042   87.3488   21.0971 H   0  0  0  0  0  0  0  0  0  0  0  0
   51.0124   89.6343   19.9174 H   0  0  0  0  0  0  0  0  0  0  0  0
   55.7848   87.9220   20.2345 H   0  0  0  0  0  0  0  0  0  0  0  0
   55.2538   86.1889   20.4741 H   0  0  0  0  0  0  0  0  0  0  0  0
   57.5342   87.1972   18.7374 H   0  0  0  0  0  0  0  0  0  0  0  0
   57.6256   86.2203   20.2663 H   0  0  0  0  0  0  0  0  0  0  0  0
   57.9735   84.8817   18.1796 H   0  0  0  0  0  0  0  0  0  0  0  0
   56.5771   84.3457   19.2093 H   0  0  0  0  0  0  0  0  0  0  0  0
   56.4377   85.9876   16.6453 H   0  0  0  0  0  0  0  0  0  0  0  0
   55.9276   84.2681   16.8841 H   0  0  0  0  0  0  0  0  0  0  0  0
   54.0128   85.8654   16.8998 H   0  0  0  0  0  0  0  0  0  0  0  0
   54.2236   84.9460   18.4600 H   0  0  0  0  0  0  0  0  0  0  0  0
   56.1557   88.0665   17.3854 H   0  0  0  0  0  0  0  0  0  0  0  0
   54.4510   88.0858   16.7194 H   0  0  0  0  0  0  0  0  0  0  0  0
   55.3390   90.3090   17.6910 H   0  0  0  0  0  0  0  0  0  0  0  0
   52.7687   83.2588   25.1674 H   0  0  0  0  0  0  0  0  0  0  0  0
   52.1125   80.5131   26.9728 H   0  0  0  0  0  0  0  0  0  0  0  0
   51.7720   79.4661   25.5456 H   0  0  0  0  0  0  0  0  0  0  0  0
   52.6201   78.1282   27.4301 H   0  0  0  0  0  0  0  0  0  0  0  0
   53.7956   78.1461   26.0424 H   0  0  0  0  0  0  0  0  0  0  0  0
  1  2  1  0
  2  3  1  0
  2  4  1  0
  4  5  1  0
  5  6  1  0
  6  7  1  0
  7  8  1  0
  8  9  2  0
  9 10  1  0
 10 11  2  0
 11 12  1  0
 12 13  1  0
 13 14  2  0
 14 15  1  0
 15 16  2  0
 16 17  1  0
 17 18  2  0
 18 19  1  0
 19 20  1  0
 20 21  2  0
 19 22  1  0
 22 23  1  0
 23 24  1  0
 24 25  1  0
 25 26  1  0
 26 27  1  0
 22 28  1  0
 28 29  1  0
 29 30  1  0
 30 31  2  0
 11 32  1  0
 32 33  2  0
  7 34  1  0
 34 35  1  0
 35  4  1  0
 33  8  1  0
 21 13  1  0
 27 22  1  0
 20 16  1  0
 30 18  1  0
  1 36  1  0
  1 37  1  0
  1 38  1  0
  2 39  1  0
  3 40  1  0
  3 41  1  0
  3 42  1  0
  4 43  1  0
  5 44  1  0
  5 45  1  0
  6 46  1  0
  6 47  1  0
  9 48  1  0
 10 49  1  0
 12 50  1  0
 15 51  1  0
 17 52  1  0
 23 53  1  0
 23 54  1  0
 24 55  1  0
 24 56  1  0
 25 57  1  0
 25 58  1  0
 26 59  1  0
 26 60  1  0
 27 61  1  0
 27 62  1  0
 28 63  1  0
 28 64  1  0
 29 65  1  0
 33 66  1  0
 34 67  1  0
 34 68  1  0
 35 69  1  0
 35 70  1  0
M  END
>  <meeko>  (1) 
{"is_sidechain": false}

>  <smiles>  (1) 
CC(C)C1CCN(c2ccc(Nc3ncc4cc5n(c4n3)C3(CCCCC3)CNC5=O)nc2)CC1

>  <vina_score>  (1) 
-8.904

>  <job_id>  (1) 
ef176c3447d2103d

$$$$

     RDKit          3D

 56 58  0  0  0  0  0  0  0  0999 V2000
   64.7970   84.0760   30.8750 C   0  0  0  0  0  0  0  0  0  0  0  0
   64.9520   82.7890   30.2910 O   0  0  0  0  0  0  0  0  0  0  0  0
   64.2760   81.7620   31.0200 C   0  0  0  0  0  0  0  0  0  0  0  0
   63.5620   82.3200   32.2540 C   0  0  0  0  0  0  0  0  0  0  0  0
   62.2190   81.7410   32.3600 N   0  0  0  0  0  0  0  0  0  0  0  0
   60.8810   82.6760   31.9860 S   0  0  0  0  0  0  0  0  0  0  0  0
   60.1580   82.8730   33.2220 O   0  0  0  0  0  0  0  0  0  0  0  0
   61.3290   83.7880   31.1760 O   0  0  0  0  0  0  0  0  0  0  0  0
   59.9230   81.5890   30.9610 C   0  0  0  0  0  0  0  0  0  0  0  0
   60.0160   81.6710   29.5730 C   0  0  0  0  0  0  0  0  0  0  0  0
   59.2500   80.8090   28.7830 C   0  0  0  0  0  0  0  0  0  0  0  0
   58.3770   79.8650   29.3560 C   0  0  0  0  0  0  0  0  0  0  0  0
   57.6480   79.0310   28.5030 N   0  0  0  0  0  0  0  0  0  0  0  0
   56.3010   78.7010   28.3870 C   0  0  0  0  0  0  0  0  0  0  0  0
   55.6370   78.0620   29.3600 N   0  0  0  0  0  0  0  0  0  0  0  0
   54.3410   77.7740   29.1430 C   0  0  0  0  0  0  0  0  0  0  0  0
   53.6780   78.1060   27.9920 C   0  0  0  0  0  0  0  0  0  0  0  0
   54.4320   78.7740   27.0560 C   0  0  0  0  0  0  0  0  0  0  0  0
   53.8720   79.1700   25.7750 C   0  0  0  0  0  0  0  0  0  0  0  0
   53.3510   78.3570   24.7860 C   0  0  0  0  0  0  0  0  0  0  0  0
   52.9170   79.0770   23.7150 N   0  0  0  0  0  0  0  0  0  0  0  0
   53.1660   80.3350   24.0080 C   0  0  0  0  0  0  0  0  0  0  0  0
   52.8800   81.4790   23.1010 C   0  0  0  0  0  0  0  0  0  0  0  0
   53.7250   80.4530   25.2730 N   0  0  0  0  0  0  0  0  0  0  0  0
   54.0300   81.7330   25.9160 C   0  0  0  0  0  0  0  0  0  0  0  0
   53.3490   81.9520   27.2680 C   0  0  0  0  0  0  0  0  0  0  0  0
   55.5320   82.0140   25.9690 C   0  0  0  0  0  0  0  0  0  0  0  0
   55.7320   79.0720   27.2300 N   0  0  0  0  0  0  0  0  0  0  0  0
   58.2960   79.8170   30.7530 C   0  0  0  0  0  0  0  0  0  0  0  0
   59.0560   80.6750   31.5560 C   0  0  0  0  0  0  0  0  0  0  0  0
   64.8080   83.9850   31.9712 H   0  0  0  0  0  0  0  0  0  0  0  0
   65.6233   84.7268   30.5528 H   0  0  0  0  0  0  0  0  0  0  0  0
   63.8399   84.5120   30.5528 H   0  0  0  0  0  0  0  0  0  0  0  0
   63.5328   81.2880   30.3620 H   0  0  0  0  0  0  0  0  0  0  0  0
   65.0256   81.0315   31.3585 H   0  0  0  0  0  0  0  0  0  0  0  0
   64.1401   82.0670   33.1550 H   0  0  0  0  0  0  0  0  0  0  0  0
   63.4781   83.4127   32.1597 H   0  0  0  0  0  0  0  0  0  0  0  0
   62.0970   80.7480   32.1740 H   0  0  0  0  0  0  0  0  0  0  0  0
   60.6856   82.4068   29.1037 H   0  0  0  0  0  0  0  0  0  0  0  0
   59.3313   80.8698   27.6877 H   0  0  0  0  0  0  0  0  0  0  0  0
   58.1660   78.5220   27.8020 H   0  0  0  0  0  0  0  0  0  0  0  0
   53.7853   77.2445   29.9309 H   0  0  0  0  0  0  0  0  0  0  0  0
   52.6193   77.8565   27.8280 H   0  0  0  0  0  0  0  0  0  0  0  0
   53.2939   77.2607   24.8558 H   0  0  0  0  0  0  0  0  0  0  0  0
   52.6562   82.3744   23.6995 H   0  0  0  0  0  0  0  0  0  0  0  0
   53.7575   81.6721   22.4664 H   0  0  0  0  0  0  0  0  0  0  0  0
   52.0149   81.2364   22.4664 H   0  0  0  0  0  0  0  0  0  0  0  0
   53.5768   82.4867   25.2553 H   0  0  0  0  0  0  0  0  0  0  0  0
   54.0584   81.7239   28.0771 H   0  0  0  0  0  0  0  0  0  0  0  0
   53.0244   82.9998   27.3496 H   0  0  0  0  0  0  0  0  0  0  0  0
   52.4745   81.2898   27.3496 H   0  0  0  0  0  0  0  0  0  0  0  0
   55.8569   82.0748   27.0182 H   0  0  0  0  0  0  0  0  0  0  0  0
   56.0750   81.2019   25.4635 H   0  0  0  0  0  0  0  0  0  0  0  0
   55.7447   82.9675   25.4635 H   0  0  0  0  0  0  0  0  0  0  0  0
   57.6213   79.0902   31.2290 H   0  0  0  0  0  0  0  0  0  0  0  0
   58.9693   80.6280   32.6516 H   0  0  0  0  0  0  0  0  0  0  0  0
  1  2  1  0
  2  3  1  0
  3  4  1  0
  4  5  1  0
  5  6  1  0
  6  7  2  0
  6  8  2  0
  6  9  1  0
  9 10  1  0
 10 11  2  0
 11 12  1  0
 12 13  1  0
 13 14  1  0
 14 15  2  0
 15 16  1  0
 16 17  2  0
 17 18  1  0
 18 19  1  0
 19 20  2  0
 20 21  1  0
 21 22  2  0
 22 23  1  0
 22 24  1  0
 24 25  1  0
 25 26  1  0
 25 27  1  0
 18 28  2  0
 12 29  2  0
 29 30  1  0
 30  9  2  0
 28 14  1  0
 24 19  1  0
  1 31  1  0
  1 32  1  0
  1 33  1  0
  3 34  1  0
  3 35  1  0
  4 36  1  0
  4 37  1  0
  5 38  1  0
 10 39  1  0
 11 40  1  0
 13 41  1  0
 16 42  1  0
 17 43  1  0
 20 44  1  0
 23 45  1  0
 23 46  1  0
 23 47  1  0
 25 48  1  0
 26 49  1  0
 26 50  1  0
 26 51  1  0
 27 52  1  0
 27 53  1  0
 27 54  1  0
 29 55  1  0
 30 56  1  0
M  END
>  <meeko>  (1) 
{"is_sidechain": false}

>  <smiles>  (1) 
COCCNS(=O)(=O)c1ccc(Nc2nccc(-c3cnc(C)n3C(C)C)n2)cc1

>  <vina_score>  (1) 
-8.099

>  <job_id>  (1) 
f001e5e024d647e7

$$$$

     RDKit          3D

 61 63  0  0  0  0  0  0  0  0999 V2000
   63.4760   87.7570   29.3090 C   0  0  0  0  0  0  0  0  0  0  0  0
   64.7000   86.9490   29.7280 C   0  0  0  0  0  0  0  0  0  0  0  0
   65.0000   85.8640   28.6960 C   0  0  0  0  0  0  0  0  0  0  0  0
   64.4990   86.2060   31.3530 S   0  0  0  0  0  0  0  0  0  0  0  0
   63.8900   87.1890   32.2310 O   0  0  0  0  0  0  0  0  0  0  0  0
   65.7430   85.5570   31.7230 O   0  0  0  0  0  0  0  0  0  0  0  0
   63.2810   84.9330   31.1070 C   0  0  0  0  0  0  0  0  0  0  0  0
   61.9270   85.2500   31.2330 C   0  0  0  0  0  0  0  0  0  0  0  0
   60.9680   84.2510   31.0480 C   0  0  0  0  0  0  0  0  0  0  0  0
   61.3420   82.9290   30.7480 C   0  0  0  0  0  0  0  0  0  0  0  0
   60.3280   81.8800   30.5550 C   0  0  0  0  0  0  0  0  0  0  0  0
   59.5970   81.3700   31.6350 C   0  0  0  0  0  0  0  0  0  0  0  0
   58.6310   80.3720   31.4450 C   0  0  0  0  0  0  0  0  0  0  0  0
   58.3590   79.8470   30.1730 C   0  0  0  0  0  0  0  0  0  0  0  0
   57.3810   78.8560   30.0550 N   0  0  0  0  0  0  0  0  0  0  0  0
   56.3180   78.6430   29.1820 C   0  0  0  0  0  0  0  0  0  0  0  0
   55.4400   77.6450   29.3490 N   0  0  0  0  0  0  0  0  0  0  0  0
   54.4520   77.5210   28.4430 C   0  0  0  0  0  0  0  0  0  0  0  0
   54.3000   78.3570   27.3660 C   0  0  0  0  0  0  0  0  0  0  0  0
   53.2070   78.1970   26.3790 C   0  0  0  0  0  0  0  0  0  0  0  0
   52.5600   77.0030   26.4860 F   0  0  0  0  0  0  0  0  0  0  0  0
   53.6300   78.2900   25.0890 F   0  0  0  0  0  0  0  0  0  0  0  0
   52.2340   79.1450   26.5080 F   0  0  0  0  0  0  0  0  0  0  0  0
   55.2390   79.3490   27.2780 C   0  0  0  0  0  0  0  0  0  0  0  0
   55.1460   80.2130   26.2090 O   0  0  0  0  0  0  0  0  0  0  0  0
   54.7440   81.5580   26.5170 C   0  0  2  0  0  0  0  0  0  0  0  0
   53.5430   81.8590   25.6160 C   0  0  0  0  0  0  0  0  0  0  0  0
   55.9100   82.5560   26.3110 C   0  0  1  0  0  0  0  0  0  0  0  0
   55.4680   84.0080   26.1450 C   0  0  0  0  0  0  0  0  0  0  0  0
   56.8530   82.4680   27.3830 O   0  0  0  0  0  0  0  0  0  0  0  0
   56.2440   79.5070   28.1600 N   0  0  0  0  0  0  0  0  0  0  0  0
   59.0890   80.3580   29.0980 C   0  0  0  0  0  0  0  0  0  0  0  0
   60.0570   81.3570   29.2830 C   0  0  0  0  0  0  0  0  0  0  0  0
   62.7140   82.6350   30.6450 C   0  0  0  0  0  0  0  0  0  0  0  0
   63.6830   83.6270   30.8290 C   0  0  0  0  0  0  0  0  0  0  0  0
   62.9440   88.1082   30.2055 H   0  0  0  0  0  0  0  0  0  0  0  0
   63.7955   88.6223   28.7097 H   0  0  0  0  0  0  0  0  0  0  0  0
   62.8058   87.1232   28.7097 H   0  0  0  0  0  0  0  0  0  0  0  0
   65.5464   87.6494   29.7831 H   0  0  0  0  0  0  0  0  0  0  0  0
   65.2588   84.9280   29.2127 H   0  0  0  0  0  0  0  0  0  0  0  0
   64.1130   85.7019   28.0660 H   0  0  0  0  0  0  0  0  0  0  0  0
   65.8443   86.1806   28.0660 H   0  0  0  0  0  0  0  0  0  0  0  0
   61.6181   86.2774   31.4758 H   0  0  0  0  0  0  0  0  0  0  0  0
   59.9011   84.5031   31.1386 H   0  0  0  0  0  0  0  0  0  0  0  0
   59.7835   81.7581   32.6472 H   0  0  0  0  0  0  0  0  0  0  0  0
   58.0734   79.9918   32.3136 H   0  0  0  0  0  0  0  0  0  0  0  0
   57.4090   78.1050   30.7290 H   0  0  0  0  0  0  0  0  0  0  0  0
   53.7267   76.7044   28.5735 H   0  0  0  0  0  0  0  0  0  0  0  0
   54.4631   81.6652   27.5751 H   0  0  0  0  0  0  0  0  0  0  0  0
   52.6635   82.0794   26.2388 H   0  0  0  0  0  0  0  0  0  0  0  0
   53.7697   82.7281   24.9810 H   0  0  0  0  0  0  0  0  0  0  0  0
   53.3330   80.9857   24.9810 H   0  0  0  0  0  0  0  0  0  0  0  0
   56.3797   82.2557   25.3627 H   0  0  0  0  0  0  0  0  0  0  0  0
   55.3290   84.4646   27.1361 H   0  0  0  0  0  0  0  0  0  0  0  0
   56.2375   84.5643   25.5897 H   0  0  0  0  0  0  0  0  0  0  0  0
   54.5191   84.0412   25.5897 H   0  0  0  0  0  0  0  0  0  0  0  0
   56.3610   82.4430   28.2210 H   0  0  0  0  0  0  0  0  0  0  0  0
   58.9016   79.9698   28.0860 H   0  0  0  0  0  0  0  0  0  0  0  0
   60.6136   81.7368   28.4135 H   0  0  0  0  0  0  0  0  0  0  0  0
   63.0304   81.6067   30.4157 H   0  0  0  0  0  0  0  0  0  0  0  0
   64.7522   83.3791   30.7551 H   0  0  0  0  0  0  0  0  0  0  0  0
  1  2  1  0
  2  3  1  0
  2  4  1  0
  4  5  2  0
  4  6  2  0
  4  7  1  0
  7  8  1  0
  8  9  2  0
  9 10  1  0
 10 11  1  0
 11 12  1  0
 12 13  2  0
 13 14  1  0
 14 15  1  0
 15 16  1  0
 16 17  2  0
 17 18  1  0
 18 19  2  0
 19 20  1  0
 20 21  1  0
 20 22  1  0
 20 23  1  0
 19 24  1  0
 24 25  1  0
 25 26  1  0
 26 27  1  0
 26 28  1  0
 28 29  1  0
 28 30  1  0
 24 31  2  0
 14 32  2  0
 32 33  1  0
 10 34  2  0
 34 35  1  0
 35  7  2  0
 33 11  2  0
 31 16  1  0
  1 36  1  0
  1 37  1  0
  1 38  1  0
  2 39  1  0
  3 40  1  0
  3 41  1  0
  3 42  1  0
  8 43  1  0
  9 44  1  0
 12 45  1  0
 13 46  1  0
 15 47  1  0
 18 48  1  0
 26 49  1  1
 27 50  1  0
 27 51  1  0
 27 52  1  0
 28 53  1  6
 29 54  1  0
 29 55  1  0
 29 56  1  0
 30 57  1  0
 32 58  1  0
 33 59  1  0
 34 60  1  0
 35 61  1  0
M  END
>  <meeko>  (1) 
{"is_sidechain": false}

>  <smiles>  (1) 
CC(C)S(=O)(=O)c1ccc(-c2ccc(Nc3ncc(C(F)(F)F)c(O[C@H](C)[C@@H](C)O)n3)cc2)cc1

>  <vina_score>  (1) 
-8.197

>  <job_id>  (1) 
f8d6f433a28c8b8a

$$$$

     RDKit          3D

 57 60  0  0  0  0  0  0  0  0999 V2000
   64.8190   84.9810   33.8200 C   0  0  0  0  0  0  0  0  0  0  0  0
   63.5860   84.2990   34.3500 C   0  0  0  0  0  0  0  0  0  0  0  0
   63.4220   84.0800   35.5450 O   0  0  0  0  0  0  0  0  0  0  0  0
   62.6640   83.9660   33.3830 N   0  0  0  0  0  0  0  0  0  0  0  0
   61.3340   83.4050   33.7460 C   0  0  0  0  0  0  0  0  0  0  0  0
   61.1600   81.9080   33.4200 C   0  0  0  0  0  0  0  0  0  0  0  0
   60.6020   82.3250   32.1610 N   0  0  0  0  0  0  0  0  0  0  0  0
   59.8560   81.5380   31.2630 C   0  0  0  0  0  0  0  0  0  0  0  0
   60.0470   81.6390   29.8830 C   0  0  0  0  0  0  0  0  0  0  0  0
   59.3100   80.8460   28.9930 C   0  0  0  0  0  0  0  0  0  0  0  0
   58.3650   79.9160   29.4500 C   0  0  0  0  0  0  0  0  0  0  0  0
   57.6580   79.1630   28.5080 N   0  0  0  0  0  0  0  0  0  0  0  0
   56.3360   78.7470   28.3940 C   0  0  0  0  0  0  0  0  0  0  0  0
   55.7200   78.0480   29.3610 N   0  0  0  0  0  0  0  0  0  0  0  0
   54.4400   77.6820   29.1450 C   0  0  0  0  0  0  0  0  0  0  0  0
   53.7490   77.9960   28.0070 C   0  0  0  0  0  0  0  0  0  0  0  0
   52.4800   77.6080   27.8380 F   0  0  0  0  0  0  0  0  0  0  0  0
   54.4440   78.7320   27.0740 C   0  0  0  0  0  0  0  0  0  0  0  0
   53.8600   79.1180   25.7970 C   0  0  0  0  0  0  0  0  0  0  0  0
   53.3200   78.2930   24.8270 C   0  0  0  0  0  0  0  0  0  0  0  0
   52.8900   78.9980   23.7450 N   0  0  0  0  0  0  0  0  0  0  0  0
   53.1420   80.2600   24.0180 C   0  0  0  0  0  0  0  0  0  0  0  0
   52.8540   81.3900   23.0960 C   0  0  0  0  0  0  0  0  0  0  0  0
   53.7020   80.3950   25.2830 N   0  0  0  0  0  0  0  0  0  0  0  0
   53.9840   81.6860   25.9120 C   0  0  0  0  0  0  0  0  0  0  0  0
   53.3100   81.9020   27.2700 C   0  0  0  0  0  0  0  0  0  0  0  0
   55.4790   82.0060   25.9470 C   0  0  0  0  0  0  0  0  0  0  0  0
   55.7300   79.1070   27.2480 N   0  0  0  0  0  0  0  0  0  0  0  0
   58.1840   79.8140   30.8300 C   0  0  0  0  0  0  0  0  0  0  0  0
   58.9200   80.6070   31.7220 C   0  0  0  0  0  0  0  0  0  0  0  0
   60.2420   83.6200   32.6800 C   0  0  0  0  0  0  0  0  0  0  0  0
   65.4388   85.3238   34.6616 H   0  0  0  0  0  0  0  0  0  0  0  0
   65.3943   84.2728   33.2056 H   0  0  0  0  0  0  0  0  0  0  0  0
   64.5249   85.8447   33.2056 H   0  0  0  0  0  0  0  0  0  0  0  0
   62.7730   84.3850   32.4650 H   0  0  0  0  0  0  0  0  0  0  0  0
   61.2698   83.8095   34.7669 H   0  0  0  0  0  0  0  0  0  0  0  0
   62.0995   81.3411   33.3424 H   0  0  0  0  0  0  0  0  0  0  0  0
   60.6273   81.2223   34.0953 H   0  0  0  0  0  0  0  0  0  0  0  0
   60.7867   82.3514   29.4890 H   0  0  0  0  0  0  0  0  0  0  0  0
   59.4766   80.9555   27.9112 H   0  0  0  0  0  0  0  0  0  0  0  0
   58.1920   78.7740   27.7450 H   0  0  0  0  0  0  0  0  0  0  0  0
   53.9251   77.1009   29.9243 H   0  0  0  0  0  0  0  0  0  0  0  0
   53.2469   77.1993   24.9189 H   0  0  0  0  0  0  0  0  0  0  0  0
   52.6241   82.2920   23.6821 H   0  0  0  0  0  0  0  0  0  0  0  0
   53.7327   81.5789   22.4618 H   0  0  0  0  0  0  0  0  0  0  0  0
   51.9921   81.1353   22.4618 H   0  0  0  0  0  0  0  0  0  0  0  0
   53.5069   82.4219   25.2480 H   0  0  0  0  0  0  0  0  0  0  0  0
   54.0244   81.6730   28.0745 H   0  0  0  0  0  0  0  0  0  0  0  0
   52.9848   82.9494   27.3555 H   0  0  0  0  0  0  0  0  0  0  0  0
   52.4366   81.2388   27.3555 H   0  0  0  0  0  0  0  0  0  0  0  0
   55.8142   82.0778   26.9922 H   0  0  0  0  0  0  0  0  0  0  0  0
   56.0370   81.2070   25.4370 H   0  0  0  0  0  0  0  0  0  0  0  0
   55.6611   82.9635   25.4370 H   0  0  0  0  0  0  0  0  0  0  0  0
   57.4494   79.0973   31.2258 H   0  0  0  0  0  0  0  0  0  0  0  0
   58.7576   80.4942   32.8041 H   0  0  0  0  0  0  0  0  0  0  0  0
   60.4270   84.4593   31.9935 H   0  0  0  0  0  0  0  0  0  0  0  0
   59.2059   83.8732   32.9491 H   0  0  0  0  0  0  0  0  0  0  0  0
  1  2  1  0
  2  3  2  0
  2  4  1  0
  4  5  1  0
  5  6  1  0
  6  7  1  0
  7  8  1  0
  8  9  1  0
  9 10  2  0
 10 11  1  0
 11 12  1  0
 12 13  1  0
 13 14  2  0
 14 15  1  0
 15 16  2  0
 16 17  1  0
 16 18  1  0
 18 19  1  0
 19 20  2  0
 20 21  1  0
 21 22  2  0
 22 23  1  0
 22 24  1  0
 24 25  1  0
 25 26  1  0
 25 27  1  0
 18 28  2  0
 11 29  2  0
 29 30  1  0
  7 31  1  0
 31  5  1  0
 30  8  2  0
 28 13  1  0
 24 19  1  0
  1 32  1  0
  1 33  1  0
  1 34  1  0
  4 35  1  0
  5 36  1  0
  6 37  1  0
  6 38  1  0
  9 39  1  0
 10 40  1  0
 12 41  1  0
 15 42  1  0
 20 43  1  0
 23 44  1  0
 23 45  1  0
 23 46  1  0
 25 47  1  0
 26 48  1  0
 26 49  1  0
 26 50  1  0
 27 51  1  0
 27 52  1  0
 27 53  1  0
 29 54  1  0
 30 55  1  0
 31 56  1  0
 31 57  1  0
M  END
>  <meeko>  (1) 
{"is_sidechain": false}

>  <smiles>  (1) 
CC(=O)NC1CN(c2ccc(Nc3ncc(F)c(-c4cnc(C)n4C(C)C)n3)cc2)C1

>  <vina_score>  (1) 
-8.698

>  <job_id>  (1) 
f93f04c898839942

$$$$

     RDKit          3D

 53 56  0  0  0  0  0  0  0  0999 V2000
   52.1850   82.9180   26.3840 C   0  0  0  0  0  0  0  0  0  0  0  0
   52.7130   81.6940   25.6340 C   0  0  0  0  0  0  0  0  0  0  0  0
   52.5570   81.7220   24.1270 C   0  0  0  0  0  0  0  0  0  0  0  0
   52.8880   80.5280   23.2620 C   0  0  0  0  0  0  0  0  0  0  0  0
   51.4610   80.9930   23.3820 C   0  0  0  0  0  0  0  0  0  0  0  0
   54.1070   81.4460   26.0010 N   0  0  0  0  0  0  0  0  0  0  0  0
   55.1900   82.2170   25.6640 C   0  0  0  0  0  0  0  0  0  0  0  0
   56.3120   81.7390   26.1620 N   0  0  0  0  0  0  0  0  0  0  0  0
   55.9290   80.6160   26.8680 C   0  0  0  0  0  0  0  0  0  0  0  0
   56.6560   79.6800   27.6200 C   0  0  0  0  0  0  0  0  0  0  0  0
   58.0410   79.7980   27.7940 N   0  0  0  0  0  0  0  0  0  0  0  0
   58.5530   79.3710   29.0860 C   0  0  0  0  0  0  0  0  0  0  0  0
   58.8680   80.5360   30.0000 C   0  0  0  0  0  0  0  0  0  0  0  0
   59.1170   81.8080   29.4640 C   0  0  0  0  0  0  0  0  0  0  0  0
   59.3970   82.8890   30.3000 C   0  0  0  0  0  0  0  0  0  0  0  0
   59.4230   82.7140   31.6830 C   0  0  0  0  0  0  0  0  0  0  0  0
   59.1630   81.4570   32.2460 C   0  0  0  0  0  0  0  0  0  0  0  0
   59.2200   81.2590   33.7400 C   0  0  0  0  0  0  0  0  0  0  0  0
   59.6870   82.3550   34.4050 F   0  0  0  0  0  0  0  0  0  0  0  0
   58.0040   80.9870   34.2940 F   0  0  0  0  0  0  0  0  0  0  0  0
   60.0350   80.2310   34.1040 F   0  0  0  0  0  0  0  0  0  0  0  0
   58.8900   80.3740   31.3950 C   0  0  0  0  0  0  0  0  0  0  0  0
   55.9610   78.6550   28.1790 N   0  0  0  0  0  0  0  0  0  0  0  0
   54.6280   78.5710   28.0250 C   0  0  0  0  0  0  0  0  0  0  0  0
   54.0530   77.4850   28.6830 N   0  0  0  0  0  0  0  0  0  0  0  0
   52.7900   77.0490   28.1020 C   0  0  0  0  0  0  0  0  0  0  0  0
   52.8760   75.5900   27.6520 C   0  0  0  0  0  0  0  0  0  0  0  0
   52.0760   75.3610   26.4430 C   0  0  0  0  0  0  0  0  0  0  0  0
   51.4350   75.1900   25.4910 N   0  0  0  0  0  0  0  0  0  0  0  0
   53.8550   79.4100   27.3130 N   0  0  0  0  0  0  0  0  0  0  0  0
   54.5650   80.4090   26.7680 C   0  0  0  0  0  0  0  0  0  0  0  0
   52.2599   82.7445   27.4676 H   0  0  0  0  0  0  0  0  0  0  0  0
   52.7824   83.8006   26.1119 H   0  0  0  0  0  0  0  0  0  0  0  0
   51.1330   83.0891   26.1119 H   0  0  0  0  0  0  0  0  0  0  0  0
   52.0676   80.8642   25.9577 H   0  0  0  0  0  0  0  0  0  0  0  0
   52.8841   82.7707   24.1843 H   0  0  0  0  0  0  0  0  0  0  0  0
   53.4340   80.6682   22.3175 H   0  0  0  0  0  0  0  0  0  0  0  0
   53.4099   79.5732   23.4228 H   0  0  0  0  0  0  0  0  0  0  0  0
   50.9653   81.4730   22.5253 H   0  0  0  0  0  0  0  0  0  0  0  0
   50.5102   80.5187   23.6668 H   0  0  0  0  0  0  0  0  0  0  0  0
   55.1289   83.1276   25.0500 H   0  0  0  0  0  0  0  0  0  0  0  0
   58.5100   79.3780   26.9940 H   0  0  0  0  0  0  0  0  0  0  0  0
   57.7978   78.7358   29.5720 H   0  0  0  0  0  0  0  0  0  0  0  0
   59.4902   78.8229   28.9090 H   0  0  0  0  0  0  0  0  0  0  0  0
   59.0912   81.9545   28.3741 H   0  0  0  0  0  0  0  0  0  0  0  0
   59.5975   83.8804   29.8677 H   0  0  0  0  0  0  0  0  0  0  0  0
   59.6493   83.5689   32.3372 H   0  0  0  0  0  0  0  0  0  0  0  0
   58.6901   79.3827   31.8278 H   0  0  0  0  0  0  0  0  0  0  0  0
   54.8010   76.7920   28.6900 H   0  0  0  0  0  0  0  0  0  0  0  0
   51.9934   77.1484   28.8540 H   0  0  0  0  0  0  0  0  0  0  0  0
   52.5689   77.6764   27.2259 H   0  0  0  0  0  0  0  0  0  0  0  0
   53.9263   75.3409   27.4402 H   0  0  0  0  0  0  0  0  0  0  0  0
   52.4818   74.9526   28.4572 H   0  0  0  0  0  0  0  0  0  0  0  0
  1  2  1  0
  2  3  1  0
  3  4  1  0
  4  5  1  0
  2  6  1  0
  6  7  1  0
  7  8  2  0
  8  9  1  0
  9 10  2  0
 10 11  1  0
 11 12  1  0
 12 13  1  0
 13 14  2  0
 14 15  1  0
 15 16  2  0
 16 17  1  0
 17 18  1  0
 18 19  1  0
 18 20  1  0
 18 21  1  0
 17 22  2  0
 10 23  1  0
 23 24  2  0
 24 25  1  0
 25 26  1  0
 26 27  1  0
 27 28  1  0
 28 29  3  0
 24 30  1  0
 30 31  2  0
  5  3  1  0
 31  6  1  0
 31  9  1  0
 22 13  1  0
  1 32  1  0
  1 33  1  0
  1 34  1  0
  2 35  1  0
  3 36  1  0
  4 37  1  0
  4 38  1  0
  5 39  1  0
  5 40  1  0
  7 41  1  0
 11 42  1  0
 12 43  1  0
 12 44  1  0
 14 45  1  0
 15 46  1  0
 16 47  1  0
 22 48  1  0
 25 49  1  0
 26 50  1  0
 26 51  1  0
 27 52  1  0
 27 53  1  0
M  END
>  <meeko>  (1) 
{"is_sidechain": false}

>  <smiles>  (1) 
CC(C1CC1)n1cnc2c(NCc3cccc(C(F)(F)F)c3)nc(NCCC#N)nc21

>  <vina_score>  (1) 
-8.401

>  <job_id>  (1) 
fae87001a2853445

$$$$

     RDKit          3D

 35 37  0  0  0  0  0  0  0  0999 V2000
   49.9290   81.3570   21.9940 N   0  0  0  0  0  0  0  0  0  0  0  0
   51.5820   81.6780   21.9660 S   0  0  0  0  0  0  0  0  0  0  0  0
   52.0940   80.9820   20.8080 O   0  0  0  0  0  0  0  0  0  0  0  0
   51.7660   83.0950   22.1680 O   0  0  0  0  0  0  0  0  0  0  0  0
   52.1320   80.8280   23.4230 C   0  0  0  0  0  0  0  0  0  0  0  0
   52.8810   79.6540   23.3030 C   0  0  0  0  0  0  0  0  0  0  0  0
   53.3120   78.9940   24.4560 C   0  0  0  0  0  0  0  0  0  0  0  0
   53.0130   79.5260   25.7150 C   0  0  0  0  0  0  0  0  0  0  0  0
   53.3780   78.9060   26.8880 O   0  0  0  0  0  0  0  0  0  0  0  0
   54.6660   79.1030   27.3310 C   0  0  0  0  0  0  0  0  0  0  0  0
   55.0870   78.3430   28.4180 C   0  0  0  0  0  0  0  0  0  0  0  0
   56.3750   78.5200   28.9330 C   0  0  0  0  0  0  0  0  0  0  0  0
   57.2700   79.4640   28.3940 C   0  0  0  0  0  0  0  0  0  0  0  0
   58.6580   79.6130   28.9920 C   0  0  0  0  0  0  0  0  0  0  0  0
   59.2760   80.9730   29.2110 C   0  0  0  0  0  0  0  0  0  0  0  0
   58.8530   80.1450   30.3910 C   0  0  0  0  0  0  0  0  0  0  0  0
   56.8010   80.2320   27.3120 C   0  0  0  0  0  0  0  0  0  0  0  0
   55.5130   80.0640   26.7880 C   0  0  0  0  0  0  0  0  0  0  0  0
   52.2560   80.6940   25.8290 C   0  0  0  0  0  0  0  0  0  0  0  0
   51.8220   81.3580   24.6800 C   0  0  0  0  0  0  0  0  0  0  0  0
   49.4050   81.9900   22.5970 H   0  0  0  0  0  0  0  0  0  0  0  0
   49.7880   80.3790   22.2540 H   0  0  0  0  0  0  0  0  0  0  0  0
   53.1289   79.2533   22.3090 H   0  0  0  0  0  0  0  0  0  0  0  0
   53.8849   78.0585   24.3745 H   0  0  0  0  0  0  0  0  0  0  0  0
   54.4085   77.6051   28.8709 H   0  0  0  0  0  0  0  0  0  0  0  0
   56.6986   77.9034   29.7845 H   0  0  0  0  0  0  0  0  0  0  0  0
   58.9549   78.6996   28.4558 H   0  0  0  0  0  0  0  0  0  0  0  0
   60.3450   81.1305   29.0050 H   0  0  0  0  0  0  0  0  0  0  0  0
   59.0573   81.9917   28.8583 H   0  0  0  0  0  0  0  0  0  0  0  0
   59.6126   79.6968   31.0484 H   0  0  0  0  0  0  0  0  0  0  0  0
   58.1968   80.3075   31.2588 H   0  0  0  0  0  0  0  0  0  0  0  0
   57.4653   80.9862   26.8648 H   0  0  0  0  0  0  0  0  0  0  0  0
   55.1722   80.6898   25.9500 H   0  0  0  0  0  0  0  0  0  0  0  0
   52.0019   81.0905   26.8231 H   0  0  0  0  0  0  0  0  0  0  0  0
   51.2419   82.2890   24.7624 H   0  0  0  0  0  0  0  0  0  0  0  0
  1  2  1  0
  2  3  2  0
  2  4  2  0
  2  5  1  0
  5  6  1  0
  6  7  2  0
  7  8  1  0
  8  9  1  0
  9 10  1  0
 10 11  1  0
 11 12  2  0
 12 13  1  0
 13 14  1  0
 14 15  1  0
 15 16  1  0
 13 17  2  0
 17 18  1  0
  8 19  2  0
 19 20  1  0
 20  5  2  0
 18 10  2  0
 16 14  1  0
  1 21  1  0
  1 22  1  0
  6 23  1  0
  7 24  1  0
 11 25  1  0
 12 26  1  0
 14 27  1  0
 15 28  1  0
 15 29  1  0
 16 30  1  0
 16 31  1  0
 17 32  1  0
 18 33  1  0
 19 34  1  0
 20 35  1  0
M  END
>  <meeko>  (1) 
{"is_sidechain": false}

>  <smiles>  (1) 
NS(=O)(=O)c1ccc(Oc2ccc(C3CC3)cc2)cc1

>  <vina_score>  (1) 
-8.098

>  <job_id>  (1) 
fae88d6239667c99

$$$$

     RDKit          3D

 57 59  0  0  0  0  0  0  0  0999 V2000
   53.6850   78.1540   24.0160 C   0  0  0  0  0  0  0  0  0  0  0  0
   52.8790   79.0360   24.7830 O   0  0  0  0  0  0  0  0  0  0  0  0
   53.4550   80.3420   25.0200 C   0  0  1  0  0  0  0  0  0  0  0  0
   52.4380   81.4780   24.7130 C   0  0  1  0  0  0  0  0  0  0  0  0
   52.5770   82.1030   23.3300 C   0  0  0  0  0  0  0  0  0  0  0  0
   51.0930   80.9730   24.7920 O   0  0  0  0  0  0  0  0  0  0  0  0
   53.9710   80.3480   26.4870 C   0  0  1  0  0  0  0  0  0  0  0  0
   53.4970   81.5740   27.2700 C   0  0  0  0  0  0  0  0  0  0  0  0
   53.4620   79.2030   27.2040 O   0  0  0  0  0  0  0  0  0  0  0  0
   54.4020   78.4270   27.8470 C   0  0  0  0  0  0  0  0  0  0  0  0
   55.6250   78.9460   28.0870 N   0  0  0  0  0  0  0  0  0  0  0  0
   56.5150   78.1640   28.7170 C   0  0  0  0  0  0  0  0  0  0  0  0
   57.7550   78.7520   28.9490 N   0  0  0  0  0  0  0  0  0  0  0  0
   58.1850   79.8460   29.7100 C   0  0  0  0  0  0  0  0  0  0  0  0
   58.7280   80.9550   29.0360 C   0  0  0  0  0  0  0  0  0  0  0  0
   59.1920   82.0780   29.7290 C   0  0  0  0  0  0  0  0  0  0  0  0
   59.1250   82.0980   31.1200 C   0  0  0  0  0  0  0  0  0  0  0  0
   59.7190   83.5130   32.0190 S   0  0  0  0  0  0  0  0  0  0  0  0
   58.5510   83.9980   32.8920 N   0  0  0  0  0  0  0  0  0  0  0  0
   60.4480   84.3450   31.0830 O   0  0  0  0  0  0  0  0  0  0  0  0
   60.9260   82.7940   33.1790 C   0  0  0  0  0  0  0  0  0  0  0  0
   62.2710   83.4690   33.1600 C   0  0  0  0  0  0  0  0  0  0  0  0
   62.1020   82.1090   32.5370 C   0  0  0  0  0  0  0  0  0  0  0  0
   58.5940   81.0110   31.8140 C   0  0  0  0  0  0  0  0  0  0  0  0
   58.1320   79.8950   31.1070 C   0  0  0  0  0  0  0  0  0  0  0  0
   56.2370   76.9110   29.0960 N   0  0  0  0  0  0  0  0  0  0  0  0
   55.0040   76.4360   28.8370 C   0  0  0  0  0  0  0  0  0  0  0  0
   54.0250   77.1610   28.2090 C   0  0  0  0  0  0  0  0  0  0  0  0
   52.6760   76.6130   27.9360 C   0  0  0  0  0  0  0  0  0  0  0  0
   51.6750   77.3170   28.5310 F   0  0  0  0  0  0  0  0  0  0  0  0
   52.3750   76.5570   26.6100 F   0  0  0  0  0  0  0  0  0  0  0  0
   52.5310   75.3320   28.3900 F   0  0  0  0  0  0  0  0  0  0  0  0
   54.2711   77.5126   24.6907 H   0  0  0  0  0  0  0  0  0  0  0  0
   53.0412   77.5271   23.3816 H   0  0  0  0  0  0  0  0  0  0  0  0
   54.3672   78.7389   23.3816 H   0  0  0  0  0  0  0  0  0  0  0  0
   54.2967   80.5388   24.3396 H   0  0  0  0  0  0  0  0  0  0  0  0
   52.6560   82.2496   25.4661 H   0  0  0  0  0  0  0  0  0  0  0  0
   52.8148   83.1720   23.4330 H   0  0  0  0  0  0  0  0  0  0  0  0
   53.3850   81.5990   22.7794 H   0  0  0  0  0  0  0  0  0  0  0  0
   51.6316   81.9890   22.7794 H   0  0  0  0  0  0  0  0  0  0  0  0
   50.5370   81.6550   25.2040 H   0  0  0  0  0  0  0  0  0  0  0  0
   55.0686   80.3432   26.4151 H   0  0  0  0  0  0  0  0  0  0  0  0
   53.5748   81.3728   28.3486 H   0  0  0  0  0  0  0  0  0  0  0  0
   54.1254   82.4392   27.0122 H   0  0  0  0  0  0  0  0  0  0  0  0
   52.4500   81.7915   27.0122 H   0  0  0  0  0  0  0  0  0  0  0  0
   58.4460   78.3090   28.3630 H   0  0  0  0  0  0  0  0  0  0  0  0
   58.7892   80.9387   27.9378 H   0  0  0  0  0  0  0  0  0  0  0  0
   59.6058   82.9371   29.1806 H   0  0  0  0  0  0  0  0  0  0  0  0
   57.8090   84.3870   32.3070 H   0  0  0  0  0  0  0  0  0  0  0  0
   60.1968   82.5147   33.9537 H   0  0  0  0  0  0  0  0  0  0  0  0
   62.4355   84.3498   32.5219 H   0  0  0  0  0  0  0  0  0  0  0  0
   62.9371   83.8977   33.9232 H   0  0  0  0  0  0  0  0  0  0  0  0
   62.1430   81.9960   31.4436 H   0  0  0  0  0  0  0  0  0  0  0  0
   62.5935   81.1322   32.6564 H   0  0  0  0  0  0  0  0  0  0  0  0
   58.5385   81.0307   32.9124 H   0  0  0  0  0  0  0  0  0  0  0  0
   57.7189   79.0392   31.6610 H   0  0  0  0  0  0  0  0  0  0  0  0
   54.7690   75.4071   29.1472 H   0  0  0  0  0  0  0  0  0  0  0  0
  1  2  1  0
  2  3  1  0
  3  4  1  0
  4  5  1  0
  4  6  1  0
  3  7  1  0
  7  8  1  0
  7  9  1  0
  9 10  1  0
 10 11  2  0
 11 12  1  0
 12 13  1  0
 13 14  1  0
 14 15  1  0
 15 16  2  0
 16 17  1  0
 17 18  1  0
 18 19  2  0
 18 20  2  0
 18 21  1  0
 21 22  1  0
 22 23  1  0
 17 24  2  0
 24 25  1  0
 12 26  2  0
 26 27  1  0
 27 28  2  0
 28 29  1  0
 29 30  1  0
 29 31  1  0
 29 32  1  0
 28 10  1  0
 25 14  2  0
 23 21  1  0
  1 33  1  0
  1 34  1  0
  1 35  1  0
  3 36  1  6
  4 37  1  1
  5 38  1  0
  5 39  1  0
  5 40  1  0
  6 41  1  0
  7 42  1  6
  8 43  1  0
  8 44  1  0
  8 45  1  0
 13 46  1  0
 15 47  1  0
 16 48  1  0
 19 49  1  0
 21 50  1  0
 22 51  1  0
 22 52  1  0
 23 53  1  0
 23 54  1  0
 24 55  1  0
 25 56  1  0
 27 57  1  0
M  END
>  <meeko>  (1) 
{"is_sidechain": false}

>  <smiles>  (1) 
CO[C@@H]([C@@H](C)O)[C@@H](C)Oc1nc(Nc2ccc(S(=N)(=O)C3CC3)cc2)ncc1C(F)(F)F

>  <vina_score>  (1) 
-8.014

>  <job_id>  (1) 
fd63ca09d1dc8479

$$$$
