
     RDKit          3D

 62 64  0  0  0  0  0  0  0  0999 V2000
   66.8040   80.8770   30.2820 C   0  0  0  0  0  0  0  0  0  0  0  0
   65.8820   82.0150   30.6400 C   0  0  0  0  0  0  0  0  0  0  0  0
   66.4810   83.4000   30.6550 C   0  0  0  0  0  0  0  0  0  0  0  0
   64.6580   81.7300   30.9240 N   0  0  0  0  0  0  0  0  0  0  0  0
   63.7420   82.7710   31.3420 C   0  0  0  0  0  0  0  0  0  0  0  0
   62.8270   82.2140   32.3220 N   0  0  0  0  0  0  0  0  0  0  0  0
   63.3890   81.2960   33.2940 C   0  0  0  0  0  0  0  0  0  0  0  0
   61.5990   82.8040   32.6190 C   0  0  0  0  0  0  0  0  0  0  0  0
   61.2010   83.0680   33.7500 O   0  0  0  0  0  0  0  0  0  0  0  0
   60.6510   83.0870   31.4590 C   0  0  0  0  0  0  0  0  0  0  0  0
   60.5380   84.2270   31.0270 O   0  0  0  0  0  0  0  0  0  0  0  0
   59.9020   81.9530   30.8530 C   0  0  0  0  0  0  0  0  0  0  0  0
   59.9400   81.7930   29.4640 C   0  0  0  0  0  0  0  0  0  0  0  0
   59.2640   80.7280   28.8580 C   0  0  0  0  0  0  0  0  0  0  0  0
   58.5290   79.8020   29.6150 C   0  0  0  0  0  0  0  0  0  0  0  0
   57.8980   78.7480   28.9460 N   0  0  0  0  0  0  0  0  0  0  0  0
   56.5740   78.3440   28.8060 C   0  0  0  0  0  0  0  0  0  0  0  0
   55.9760   77.5390   29.7000 N   0  0  0  0  0  0  0  0  0  0  0  0
   54.6860   77.2140   29.4780 C   0  0  0  0  0  0  0  0  0  0  0  0
   53.9760   77.6520   28.3940 C   0  0  0  0  0  0  0  0  0  0  0  0
   52.6960   77.3030   28.2170 F   0  0  0  0  0  0  0  0  0  0  0  0
   54.6680   78.4520   27.5130 C   0  0  0  0  0  0  0  0  0  0  0  0
   54.0440   79.0250   26.3290 C   0  0  0  0  0  0  0  0  0  0  0  0
   53.4840   78.3540   25.2570 C   0  0  0  0  0  0  0  0  0  0  0  0
   52.9640   79.2130   24.3360 N   0  0  0  0  0  0  0  0  0  0  0  0
   53.1950   80.4200   24.8070 C   0  0  0  0  0  0  0  0  0  0  0  0
   52.7730   81.6750   24.1300 C   0  0  0  0  0  0  0  0  0  0  0  0
   53.8900   80.3640   26.0080 N   0  0  0  0  0  0  0  0  0  0  0  0
   54.3890   81.5460   26.7130 C   0  0  0  0  0  0  0  0  0  0  0  0
   55.5400   82.2260   25.9720 C   0  0  0  0  0  0  0  0  0  0  0  0
   53.3100   82.5380   27.1510 C   0  0  0  0  0  0  0  0  0  0  0  0
   55.9570   78.8090   27.7070 N   0  0  0  0  0  0  0  0  0  0  0  0
   58.5100   79.9710   31.0020 C   0  0  0  0  0  0  0  0  0  0  0  0
   59.1830   81.0350   31.6210 C   0  0  0  0  0  0  0  0  0  0  0  0
   67.1832   80.4089   31.2024 H   0  0  0  0  0  0  0  0  0  0  0  0
   66.2529   80.1305   29.6912 H   0  0  0  0  0  0  0  0  0  0  0  0
   67.6486   81.2613   29.6912 H   0  0  0  0  0  0  0  0  0  0  0  0
   66.6225   83.7271   31.6957 H   0  0  0  0  0  0  0  0  0  0  0  0
   67.4529   83.3847   30.1401 H   0  0  0  0  0  0  0  0  0  0  0  0
   65.8042   84.0978   30.1401 H   0  0  0  0  0  0  0  0  0  0  0  0
   64.3052   83.6024   31.7909 H   0  0  0  0  0  0  0  0  0  0  0  0
   63.1807   83.1493   30.4749 H   0  0  0  0  0  0  0  0  0  0  0  0
   63.1682   81.6567   34.3094 H   0  0  0  0  0  0  0  0  0  0  0  0
   62.9465   80.2986   33.1549 H   0  0  0  0  0  0  0  0  0  0  0  0
   64.4785   81.2365   33.1549 H   0  0  0  0  0  0  0  0  0  0  0  0
   60.5035   82.5071   28.8455 H   0  0  0  0  0  0  0  0  0  0  0  0
   59.3096   80.6140   27.7649 H   0  0  0  0  0  0  0  0  0  0  0  0
   58.4720   78.1990   28.3220 H   0  0  0  0  0  0  0  0  0  0  0  0
   54.1790   76.5635   30.2058 H   0  0  0  0  0  0  0  0  0  0  0  0
   53.4612   77.2585   25.1597 H   0  0  0  0  0  0  0  0  0  0  0  0
   52.5185   82.4320   24.8865 H   0  0  0  0  0  0  0  0  0  0  0  0
   53.5955   82.0469   23.5014 H   0  0  0  0  0  0  0  0  0  0  0  0
   51.8929   81.4744   23.5014 H   0  0  0  0  0  0  0  0  0  0  0  0
   54.7952   81.1498   27.6553 H   0  0  0  0  0  0  0  0  0  0  0  0
   56.2490   82.6449   26.7013 H   0  0  0  0  0  0  0  0  0  0  0  0
   56.0565   81.4880   25.3407 H   0  0  0  0  0  0  0  0  0  0  0  0
   55.1428   83.0345   25.3407 H   0  0  0  0  0  0  0  0  0  0  0  0
   53.2700   82.5748   28.2497 H   0  0  0  0  0  0  0  0  0  0  0  0
   53.5499   83.5374   26.7591 H   0  0  0  0  0  0  0  0  0  0  0  0
   52.3342   82.2151   26.7591 H   0  0  0  0  0  0  0  0  0  0  0  0
   57.9543   79.2530   31.6230 H   0  0  0  0  0  0  0  0  0  0  0  0
   59.1441   81.1464   32.7147 H   0  0  0  0  0  0  0  0  0  0  0  0
  1  2  1  0
  2  3  1  0
  2  4  2  3
  4  5  1  0
  5  6  1  0
  6  7  1  0
  6  8  1  0
  8  9  2  0
  8 10  1  0
 10 11  2  0
 10 12  1  0
 12 13  1  0
 13 14  2  0
 14 15  1  0
 15 16  1  0
 16 17  1  0
 17 18  2  0
 18 19  1  0
 19 20  2  0
 20 21  1  0
 20 22  1  0
 22 23  1  0
 23 24  2  0
 24 25  1  0
 25 26  2  0
 26 27  1  0
 26 28  1  0
 28 29  1  0
 29 30  1  0
 29 31  1  0
 22 32  2  0
 15 33  2  0
 33 34  1  0
 34 12  2  0
 32 17  1  0
 28 23  1  0
  1 35  1  0
  1 36  1  0
  1 37  1  0
  3 38  1  0
  3 39  1  0
  3 40  1  0
  5 41  1  0
  5 42  1  0
  7 43  1  0
  7 44  1  0
  7 45  1  0
 13 46  1  0
 14 47  1  0
 16 48  1  0
 19 49  1  0
 24 50  1  0
 27 51  1  0
 27 52  1  0
 27 53  1  0
 29 54  1  0
 30 55  1  0
 30 56  1  0
 30 57  1  0
 31 58  1  0
 31 59  1  0
 31 60  1  0
 33 61  1  0
 34 62  1  0
M  END
>  <meeko>  (1) 
{"is_sidechain": false}

>  <smiles>  (1) 
CC(C)=NCN(C)C(=O)C(=O)c1ccc(Nc2ncc(F)c(-c3cnc(C)n3C(C)C)n2)cc1

>  <vina_score>  (1) 
-9.051

>  <job_id>  (1) 
004ef08ac6416799

$$$$
