
     RDKit          3D

 33 34  0  0  0  0  0  0  0  0999 V2000
   58.9350   83.2670   33.2700 N   0  0  0  0  0  0  0  0  0  0  0  0
   60.1200   83.2000   32.0840 S   0  0  0  0  0  0  0  0  0  0  0  0
   60.0660   84.4690   31.3950 O   0  0  0  0  0  0  0  0  0  0  0  0
   61.3160   82.7240   32.7380 O   0  0  0  0  0  0  0  0  0  0  0  0
   59.5000   81.9320   31.0170 C   0  0  0  0  0  0  0  0  0  0  0  0
   58.7700   80.8700   31.5600 C   0  0  0  0  0  0  0  0  0  0  0  0
   58.3020   79.8560   30.7230 C   0  0  0  0  0  0  0  0  0  0  0  0
   58.5880   79.8980   29.3530 C   0  0  0  0  0  0  0  0  0  0  0  0
   58.1290   78.9480   28.4690 O   0  0  0  0  0  0  0  0  0  0  0  0
   56.7770   78.6900   28.4690 C   0  0  0  0  0  0  0  0  0  0  0  0
   56.2140   77.6370   29.1990 C   0  0  0  0  0  0  0  0  0  0  0  0
   54.8390   77.4030   29.1390 C   0  0  0  0  0  0  0  0  0  0  0  0
   54.0290   78.2050   28.3340 C   0  0  0  0  0  0  0  0  0  0  0  0
   54.6080   79.2310   27.5820 C   0  0  0  0  0  0  0  0  0  0  0  0
   53.5950   80.2560   26.5520 S   0  0  0  0  0  0  0  0  0  0  0  0
   54.6530   80.6210   25.2930 N   0  0  0  0  0  0  0  0  0  0  0  0
   53.3100   81.4770   27.2670 O   0  0  0  0  0  0  0  0  0  0  0  0
   52.5600   79.4370   25.9630 O   0  0  0  0  0  0  0  0  0  0  0  0
   55.9810   79.4820   27.6450 C   0  0  0  0  0  0  0  0  0  0  0  0
   59.3080   80.9670   28.8130 C   0  0  0  0  0  0  0  0  0  0  0  0
   59.7770   81.9830   29.6470 C   0  0  0  0  0  0  0  0  0  0  0  0
   58.3930   84.1250   33.1700 H   0  0  0  0  0  0  0  0  0  0  0  0
   59.3590   83.1510   34.1900 H   0  0  0  0  0  0  0  0  0  0  0  0
   58.5659   80.8341   32.6403 H   0  0  0  0  0  0  0  0  0  0  0  0
   57.7105   79.0267   31.1382 H   0  0  0  0  0  0  0  0  0  0  0  0
   56.8548   76.9938   29.8200 H   0  0  0  0  0  0  0  0  0  0  0  0
   54.3940   76.5863   29.7264 H   0  0  0  0  0  0  0  0  0  0  0  0
   52.9437   78.0311   28.2916 H   0  0  0  0  0  0  0  0  0  0  0  0
   55.6310   80.4490   25.5220 H   0  0  0  0  0  0  0  0  0  0  0  0
   54.3600   80.1090   24.4580 H   0  0  0  0  0  0  0  0  0  0  0  0
   56.4272   80.2940   27.0520 H   0  0  0  0  0  0  0  0  0  0  0  0
   59.5049   81.0077   27.7315 H   0  0  0  0  0  0  0  0  0  0  0  0
   60.3600   82.8174   29.2301 H   0  0  0  0  0  0  0  0  0  0  0  0
  1  2  1  0
  2  3  2  0
  2  4  2  0
  2  5  1  0
  5  6  1  0
  6  7  2  0
  7  8  1  0
  8  9  1  0
  9 10  1  0
 10 11  1  0
 11 12  2  0
 12 13  1  0
 13 14  2  0
 14 15  1  0
 15 16  1  0
 15 17  2  0
 15 18  2  0
 14 19  1  0
  8 20  2  0
 20 21  1  0
 21  5  2  0
 19 10  2  0
  1 22  1  0
  1 23  1  0
  6 24  1  0
  7 25  1  0
 11 26  1  0
 12 27  1  0
 13 28  1  0
 16 29  1  0
 16 30  1  0
 19 31  1  0
 20 32  1  0
 21 33  1  0
M  END
>  <meeko>  (1) 
{"is_sidechain": false}

>  <smiles>  (1) 
NS(=O)(=O)c1ccc(Oc2cccc(S(N)(=O)=O)c2)cc1

>  <vina_score>  (1) 
-7.787

>  <job_id>  (1) 
00531a568c061e23

$$$$
