
     RDKit          3D

 56 57  0  0  0  0  0  0  0  0999 V2000
   64.5570   84.5450   29.6280 C   0  0  0  0  0  0  0  0  0  0  0  0
   64.3590   84.3090   31.1190 C   0  0  0  0  0  0  0  0  0  0  0  0
   65.3480   85.5200   32.0890 S   0  0  0  0  0  0  0  0  0  0  0  0
   64.6420   82.5610   31.5890 S   0  0  0  0  0  0  0  0  0  0  0  0
   65.2550   81.8910   30.4590 O   0  0  0  0  0  0  0  0  0  0  0  0
   65.2550   82.4820   32.8940 O   0  0  0  0  0  0  0  0  0  0  0  0
   63.0990   81.8780   31.6960 N   0  0  0  0  0  0  0  0  0  0  0  0
   62.5850   81.4700   33.2820 S   0  0  0  0  0  0  0  0  0  0  0  0
   60.7960   82.6040   33.6720 S   0  0  0  0  0  0  0  0  0  0  0  0
   59.8780   81.7320   34.3840 O   0  0  0  0  0  0  0  0  0  0  0  0
   61.2960   83.8010   34.3390 O   0  0  0  0  0  0  0  0  0  0  0  0
   59.9010   83.2650   31.8620 S   0  0  0  0  0  0  0  0  0  0  0  0
   60.8980   83.9130   31.0210 O   0  0  0  0  0  0  0  0  0  0  0  0
   58.4570   84.7220   32.1440 S   0  0  0  0  0  0  0  0  0  0  0  0
   59.3000   81.8760   30.9450 C   0  0  0  0  0  0  0  0  0  0  0  0
   58.5350   80.9290   31.6280 C   0  0  0  0  0  0  0  0  0  0  0  0
   58.0000   79.8350   30.9370 C   0  0  0  0  0  0  0  0  0  0  0  0
   58.2360   79.6500   29.5710 C   0  0  0  0  0  0  0  0  0  0  0  0
   57.6930   78.6050   28.8200 N   0  0  0  0  0  0  0  0  0  0  0  0
   56.4170   78.0620   28.7020 C   0  0  0  0  0  0  0  0  0  0  0  0
   56.0880   76.8950   29.2700 N   0  0  0  0  0  0  0  0  0  0  0  0
   54.8200   76.4730   29.1060 C   0  0  0  0  0  0  0  0  0  0  0  0
   53.8730   77.1710   28.3960 C   0  0  0  0  0  0  0  0  0  0  0  0
   52.1230   76.4830   28.2180 Br  0  0  0  0  0  0  0  0  0  0  0  0
   54.2870   78.3690   27.8320 C   0  0  0  0  0  0  0  0  0  0  0  0
   53.3620   79.1640   27.1260 N   0  0  0  0  0  0  0  0  0  0  0  0
   53.8980   80.2430   26.2740 C   0  0  2  0  0  0  0  0  0  0  0  0
   53.5890   81.6100   26.8960 C   0  0  0  0  0  0  0  0  0  0  0  0
   53.3200   80.1180   24.8340 C   0  0  1  0  0  0  0  0  0  0  0  0
   53.4690   78.7310   24.2120 C   0  0  0  0  0  0  0  0  0  0  0  0
   51.9350   80.4740   24.8340 O   0  0  0  0  0  0  0  0  0  0  0  0
   55.5500   78.8080   27.9960 N   0  0  0  0  0  0  0  0  0  0  0  0
   59.0250   80.6090   28.9110 C   0  0  0  0  0  0  0  0  0  0  0  0
   59.5640   81.7090   29.5870 C   0  0  0  0  0  0  0  0  0  0  0  0
   65.2575   85.3799   29.4788 H   0  0  0  0  0  0  0  0  0  0  0  0
   64.9664   83.6355   29.1640 H   0  0  0  0  0  0  0  0  0  0  0  0
   63.5902   84.7901   29.1640 H   0  0  0  0  0  0  0  0  0  0  0  0
   63.3035   84.4900   31.3702 H   0  0  0  0  0  0  0  0  0  0  0  0
   66.1590   85.8890   31.0860 H   0  0  0  0  0  0  0  0  0  0  0  0
   62.4140   82.3970   31.1340 H   0  0  0  0  0  0  0  0  0  0  0  0
   58.3528   81.0420   32.7069 H   0  0  0  0  0  0  0  0  0  0  0  0
   57.3810   79.1056   31.4800 H   0  0  0  0  0  0  0  0  0  0  0  0
   58.3400   78.0200   28.3100 H   0  0  0  0  0  0  0  0  0  0  0  0
   54.5262   75.5176   29.5653 H   0  0  0  0  0  0  0  0  0  0  0  0
   52.7310   78.5420   26.6230 H   0  0  0  0  0  0  0  0  0  0  0  0
   54.9919   80.1495   26.2062 H   0  0  0  0  0  0  0  0  0  0  0  0
   53.6079   81.5265   27.9927 H   0  0  0  0  0  0  0  0  0  0  0  0
   54.3448   82.3401   26.5708 H   0  0  0  0  0  0  0  0  0  0  0  0
   52.5927   81.9441   26.5708 H   0  0  0  0  0  0  0  0  0  0  0  0
   53.9152   80.8075   24.2172 H   0  0  0  0  0  0  0  0  0  0  0  0
   53.5499   77.9781   25.0099 H   0  0  0  0  0  0  0  0  0  0  0  0
   52.5892   78.5121   23.5891 H   0  0  0  0  0  0  0  0  0  0  0  0
   54.3752   78.7039   23.5891 H   0  0  0  0  0  0  0  0  0  0  0  0
   51.8770   81.4380   24.9570 H   0  0  0  0  0  0  0  0  0  0  0  0
   59.2235   80.4912   27.8355 H   0  0  0  0  0  0  0  0  0  0  0  0
   60.1912   82.4363   29.0507 H   0  0  0  0  0  0  0  0  0  0  0  0
  1  2  1  0
  2  3  1  0
  2  4  1  0
  4  5  2  0
  4  6  2  0
  4  7  1  0
  7  8  1  0
  8  9  1  0
  9 10  2  0
  9 11  2  0
  9 12  1  0
 12 13  2  0
 12 14  2  0
 12 15  1  0
 15 16  1  0
 16 17  2  0
 17 18  1  0
 18 19  1  0
 19 20  1  0
 20 21  2  0
 21 22  1  0
 22 23  2  0
 23 24  1  0
 23 25  1  0
 25 26  1  0
 26 27  1  0
 27 28  1  0
 27 29  1  0
 29 30  1  0
 29 31  1  0
 25 32  2  0
 18 33  2  0
 33 34  1  0
 34 15  2  0
 32 20  1  0
  1 35  1  0
  1 36  1  0
  1 37  1  0
  2 38  1  0
  3 39  1  0
  7 40  1  0
 16 41  1  0
 17 42  1  0
 19 43  1  0
 22 44  1  0
 26 45  1  0
 27 46  1  6
 28 47  1  0
 28 48  1  0
 28 49  1  0
 29 50  1  6
 30 51  1  0
 30 52  1  0
 30 53  1  0
 31 54  1  0
 33 55  1  0
 34 56  1  0
M  END
>  <meeko>  (1) 
{"is_sidechain": false}

>  <smiles>  (1) 
CC(S)S(=O)(=O)NSS(=O)(=O)S(=O)(=S)c1ccc(Nc2ncc(Br)c(N[C@H](C)[C@@H](C)O)n2)cc1

>  <vina_score>  (1) 
-7.705

>  <job_id>  (1) 
0095c10166191ba9

$$$$
