
     RDKit          3D

 42 44  0  0  0  0  0  0  0  0999 V2000
   58.9350   79.1010   28.3940 O   0  0  0  0  0  0  0  0  0  0  0  0
   58.1500   80.0450   28.4030 C   0  0  0  0  0  0  0  0  0  0  0  0
   56.9530   80.0580   27.4600 C   0  0  0  0  0  0  0  0  0  0  0  0
   55.8460   79.1090   27.8580 C   0  0  0  0  0  0  0  0  0  0  0  0
   54.6220   79.1140   27.1690 C   0  0  0  0  0  0  0  0  0  0  0  0
   53.5960   78.2380   27.5360 C   0  0  0  0  0  0  0  0  0  0  0  0
   53.7860   77.3440   28.5860 C   0  0  0  0  0  0  0  0  0  0  0  0
   55.0000   77.3300   29.2610 C   0  0  0  0  0  0  0  0  0  0  0  0
   55.1850   76.4700   30.2700 F   0  0  0  0  0  0  0  0  0  0  0  0
   56.0300   78.1980   28.9070 C   0  0  0  0  0  0  0  0  0  0  0  0
   58.1960   81.1480   29.2410 N   0  0  0  0  0  0  0  0  0  0  0  0
   59.1480   81.4300   30.2400 C   0  0  0  0  0  0  0  0  0  0  0  0
   59.0630   80.9850   31.5540 C   0  0  0  0  0  0  0  0  0  0  0  0
   60.0590   81.3200   32.4820 C   0  0  0  0  0  0  0  0  0  0  0  0
   61.1680   82.1070   32.1350 C   0  0  0  0  0  0  0  0  0  0  0  0
   62.1280   82.4100   33.1080 N   0  0  0  0  0  0  0  0  0  0  0  0
   62.4870   83.8510   33.1540 C   0  0  0  0  0  0  0  0  0  0  0  0
   63.7950   84.0650   33.9320 C   0  0  0  0  0  0  0  0  0  0  0  0
   64.9160   83.3700   33.3620 O   0  0  0  0  0  0  0  0  0  0  0  0
   64.5600   82.1070   32.7720 C   0  0  0  0  0  0  0  0  0  0  0  0
   63.2700   81.5040   33.3460 C   0  0  0  0  0  0  0  0  0  0  0  0
   61.2390   82.5440   30.8090 C   0  0  0  0  0  0  0  0  0  0  0  0
   60.2450   82.2140   29.8740 C   0  0  0  0  0  0  0  0  0  0  0  0
   56.5422   81.0782   27.4367 H   0  0  0  0  0  0  0  0  0  0  0  0
   57.3187   79.7258   26.4772 H   0  0  0  0  0  0  0  0  0  0  0  0
   54.4694   79.8131   26.3335 H   0  0  0  0  0  0  0  0  0  0  0  0
   52.6384   78.2552   26.9949 H   0  0  0  0  0  0  0  0  0  0  0  0
   52.9810   76.6540   28.8789 H   0  0  0  0  0  0  0  0  0  0  0  0
   56.9863   78.1686   29.4498 H   0  0  0  0  0  0  0  0  0  0  0  0
   57.4920   81.8590   29.0880 H   0  0  0  0  0  0  0  0  0  0  0  0
   58.2092   80.3663   31.8676 H   0  0  0  0  0  0  0  0  0  0  0  0
   59.9683   80.9542   33.5154 H   0  0  0  0  0  0  0  0  0  0  0  0
   62.6137   84.2237   32.1268 H   0  0  0  0  0  0  0  0  0  0  0  0
   61.6807   84.3983   33.6642 H   0  0  0  0  0  0  0  0  0  0  0  0
   64.0214   85.1414   33.9448 H   0  0  0  0  0  0  0  0  0  0  0  0
   63.6418   83.6614   34.9437 H   0  0  0  0  0  0  0  0  0  0  0  0
   64.4242   82.2541   31.6904 H   0  0  0  0  0  0  0  0  0  0  0  0
   65.3745   81.4033   32.9987 H   0  0  0  0  0  0  0  0  0  0  0  0
   63.0736   80.5375   32.8588 H   0  0  0  0  0  0  0  0  0  0  0  0
   63.3936   81.3627   34.4299 H   0  0  0  0  0  0  0  0  0  0  0  0
   62.0929   83.1603   30.4910 H   0  0  0  0  0  0  0  0  0  0  0  0
   60.3311   82.5776   28.8394 H   0  0  0  0  0  0  0  0  0  0  0  0
  1  2  2  0
  2  3  1  0
  3  4  1  0
  4  5  2  0
  5  6  1  0
  6  7  2  0
  7  8  1  0
  8  9  1  0
  8 10  2  0
  2 11  1  0
 11 12  1  0
 12 13  1  0
 13 14  2  0
 14 15  1  0
 15 16  1  0
 16 17  1  0
 17 18  1  0
 18 19  1  0
 19 20  1  0
 20 21  1  0
 15 22  2  0
 22 23  1  0
 10  4  1  0
 23 12  2  0
 21 16  1  0
  3 24  1  0
  3 25  1  0
  5 26  1  0
  6 27  1  0
  7 28  1  0
 10 29  1  0
 11 30  1  0
 13 31  1  0
 14 32  1  0
 17 33  1  0
 17 34  1  0
 18 35  1  0
 18 36  1  0
 20 37  1  0
 20 38  1  0
 21 39  1  0
 21 40  1  0
 22 41  1  0
 23 42  1  0
M  END
>  <meeko>  (1) 
{"is_sidechain": false}

>  <smiles>  (1) 
O=C(Cc1cccc(F)c1)Nc1ccc(N2CCOCC2)cc1

>  <vina_score>  (1) 
-7.731

>  <job_id>  (1) 
00cf0f3d88158536

$$$$
