
     RDKit          3D

 39 40  0  0  0  0  0  0  0  0999 V2000
   62.9660   82.4020   30.9670 C   0  0  0  0  0  0  0  0  0  0  0  0
   61.8030   81.7330   30.4370 N   0  0  0  0  0  0  0  0  0  0  0  0
   60.5800   81.8570   31.0660 C   0  0  0  0  0  0  0  0  0  0  0  0
   60.3900   82.5690   32.0450 O   0  0  0  0  0  0  0  0  0  0  0  0
   59.4660   81.0360   30.5170 C   0  0  0  0  0  0  0  0  0  0  0  0
   58.5330   80.4960   31.4090 C   0  0  0  0  0  0  0  0  0  0  0  0
   57.4660   79.7210   30.9360 C   0  0  0  0  0  0  0  0  0  0  0  0
   57.3010   79.4760   29.5620 C   0  0  0  0  0  0  0  0  0  0  0  0
   56.1750   78.6610   29.0710 C   0  0  0  0  0  0  0  0  0  0  0  0
   55.8840   77.4080   29.6440 C   0  0  0  0  0  0  0  0  0  0  0  0
   54.8210   76.6250   29.1800 C   0  0  0  0  0  0  0  0  0  0  0  0
   54.0200   77.0830   28.1390 C   0  0  0  0  0  0  0  0  0  0  0  0
   54.2760   78.3340   27.5730 C   0  0  0  0  0  0  0  0  0  0  0  0
   53.4320   78.7940   26.4470 C   0  0  0  0  0  0  0  0  0  0  0  0
   52.9350   77.9340   25.7220 O   0  0  0  0  0  0  0  0  0  0  0  0
   53.2490   80.1630   26.2490 N   0  0  0  0  0  0  0  0  0  0  0  0
   52.5560   80.5940   25.0480 C   0  0  0  0  0  0  0  0  0  0  0  0
   53.4560   81.1810   27.2700 C   0  0  0  0  0  0  0  0  0  0  0  0
   55.3580   79.1070   28.0190 C   0  0  0  0  0  0  0  0  0  0  0  0
   58.2420   80.0470   28.6890 C   0  0  0  0  0  0  0  0  0  0  0  0
   58.1360   79.8570   27.3650 F   0  0  0  0  0  0  0  0  0  0  0  0
   59.3110   80.8190   29.1470 C   0  0  0  0  0  0  0  0  0  0  0  0
   62.9313   82.3821   32.0663 H   0  0  0  0  0  0  0  0  0  0  0  0
   63.8746   81.8885   30.6194 H   0  0  0  0  0  0  0  0  0  0  0  0
   62.9789   83.4456   30.6194 H   0  0  0  0  0  0  0  0  0  0  0  0
   61.9580   80.9520   29.8160 H   0  0  0  0  0  0  0  0  0  0  0  0
   58.6379   80.6811   32.4882 H   0  0  0  0  0  0  0  0  0  0  0  0
   56.7458   79.2975   31.6515 H   0  0  0  0  0  0  0  0  0  0  0  0
   56.5047   77.0372   30.4730 H   0  0  0  0  0  0  0  0  0  0  0  0
   54.6186   75.6461   29.6391 H   0  0  0  0  0  0  0  0  0  0  0  0
   53.1911   76.4645   27.7643 H   0  0  0  0  0  0  0  0  0  0  0  0
   51.6526   81.1559   25.3276 H   0  0  0  0  0  0  0  0  0  0  0  0
   53.2195   81.2390   24.4533 H   0  0  0  0  0  0  0  0  0  0  0  0
   52.2709   79.7137   24.4533 H   0  0  0  0  0  0  0  0  0  0  0  0
   53.3633   80.7249   28.2667 H   0  0  0  0  0  0  0  0  0  0  0  0
   54.4607   81.6145   27.1572 H   0  0  0  0  0  0  0  0  0  0  0  0
   52.7004   81.9724   27.1572 H   0  0  0  0  0  0  0  0  0  0  0  0
   55.5693   80.0740   27.5392 H   0  0  0  0  0  0  0  0  0  0  0  0
   60.0263   81.2533   28.4331 H   0  0  0  0  0  0  0  0  0  0  0  0
  1  2  1  0
  2  3  1  0
  3  4  2  0
  3  5  1  0
  5  6  1  0
  6  7  2  0
  7  8  1  0
  8  9  1  0
  9 10  2  0
 10 11  1  0
 11 12  2  0
 12 13  1  0
 13 14  1  0
 14 15  2  0
 14 16  1  0
 16 17  1  0
 16 18  1  0
 13 19  2  0
  8 20  2  0
 20 21  1  0
 20 22  1  0
 22  5  2  0
 19  9  1  0
  1 23  1  0
  1 24  1  0
  1 25  1  0
  2 26  1  0
  6 27  1  0
  7 28  1  0
 10 29  1  0
 11 30  1  0
 12 31  1  0
 17 32  1  0
 17 33  1  0
 17 34  1  0
 18 35  1  0
 18 36  1  0
 18 37  1  0
 19 38  1  0
 22 39  1  0
M  END
>  <meeko>  (1) 
{"is_sidechain": false}

>  <smiles>  (1) 
CNC(=O)c1ccc(-c2cccc(C(=O)N(C)C)c2)c(F)c1

>  <vina_score>  (1) 
-8.746

>  <job_id>  (1) 
00de673ce8aaf049

$$$$
