
     RDKit          3D

 58 61  0  0  0  0  0  0  0  0999 V2000
   61.8060   84.3490   32.6630 C   0  0  0  0  0  0  0  0  0  0  0  0
   62.8670   83.7220   33.5650 C   0  0  0  0  0  0  0  0  0  0  0  0
   63.2370   82.3250   33.3140 N   0  0  0  0  0  0  0  0  0  0  0  0
   64.5630   82.1040   32.7310 C   0  0  0  0  0  0  0  0  0  0  0  0
   64.5260   82.0160   31.2090 C   0  0  0  0  0  0  0  0  0  0  0  0
   62.9370   81.4050   34.4210 C   0  0  0  0  0  0  0  0  0  0  0  0
   61.5450   80.7560   34.4680 C   0  0  0  0  0  0  0  0  0  0  0  0
   60.9750   80.6080   33.1380 N   0  0  0  0  0  0  0  0  0  0  0  0
   59.7890   81.2390   32.8180 C   0  0  0  0  0  0  0  0  0  0  0  0
   59.1130   81.8610   33.6290 O   0  0  0  0  0  0  0  0  0  0  0  0
   59.3690   81.1690   31.3910 C   0  0  0  0  0  0  0  0  0  0  0  0
   59.5910   82.2230   30.5010 C   0  0  0  0  0  0  0  0  0  0  0  0
   59.1710   82.1030   29.1780 C   0  0  0  0  0  0  0  0  0  0  0  0
   58.5420   80.9320   28.7410 C   0  0  0  0  0  0  0  0  0  0  0  0
   58.3290   79.8520   29.6050 C   0  0  0  0  0  0  0  0  0  0  0  0
   57.7110   78.6570   29.2240 N   0  0  0  0  0  0  0  0  0  0  0  0
   56.4070   78.3040   28.8890 C   0  0  0  0  0  0  0  0  0  0  0  0
   55.8770   77.3220   29.6370 N   0  0  0  0  0  0  0  0  0  0  0  0
   54.6220   76.9330   29.3520 C   0  0  0  0  0  0  0  0  0  0  0  0
   53.8660   77.4920   28.3560 C   0  0  0  0  0  0  0  0  0  0  0  0
   54.4800   78.4990   27.6500 C   0  0  0  0  0  0  0  0  0  0  0  0
   53.8270   79.1780   26.5520 C   0  0  0  0  0  0  0  0  0  0  0  0
   53.4260   78.6450   25.3050 C   0  0  0  0  0  0  0  0  0  0  0  0
   52.8480   79.5500   24.5140 N   0  0  0  0  0  0  0  0  0  0  0  0
   52.9100   80.6860   25.2250 N   0  0  0  0  0  0  0  0  0  0  0  0
   52.4090   81.8280   24.7000 N   0  0  0  0  0  0  0  0  0  0  0  0
   52.5600   82.8470   25.4800 C   0  0  0  0  0  0  0  0  0  0  0  0
   53.2070   82.8470   26.8120 C   0  0  0  0  0  0  0  0  0  0  0  0
   53.6680   81.6760   27.2660 C   0  0  0  0  0  0  0  0  0  0  0  0
   53.5100   80.5200   26.4630 C   0  0  0  0  0  0  0  0  0  0  0  0
   55.7430   78.9010   27.8940 N   0  0  0  0  0  0  0  0  0  0  0  0
   58.7540   79.9920   30.9360 C   0  0  0  0  0  0  0  0  0  0  0  0
   61.0240   84.8112   33.2833 H   0  0  0  0  0  0  0  0  0  0  0  0
   62.2719   85.1169   32.0280 H   0  0  0  0  0  0  0  0  0  0  0  0
   61.3580   83.5705   32.0280 H   0  0  0  0  0  0  0  0  0  0  0  0
   63.7807   84.3265   33.4665 H   0  0  0  0  0  0  0  0  0  0  0  0
   62.4106   83.7130   34.5658 H   0  0  0  0  0  0  0  0  0  0  0  0
   65.2187   82.9386   33.0200 H   0  0  0  0  0  0  0  0  0  0  0  0
   64.9389   81.1429   33.1117 H   0  0  0  0  0  0  0  0  0  0  0  0
   64.1159   81.0407   30.9080 H   0  0  0  0  0  0  0  0  0  0  0  0
   63.8898   82.8200   30.8106 H   0  0  0  0  0  0  0  0  0  0  0  0
   65.5456   82.1238   30.8106 H   0  0  0  0  0  0  0  0  0  0  0  0
   63.6753   80.5908   34.3777 H   0  0  0  0  0  0  0  0  0  0  0  0
   62.9732   82.0384   35.3196 H   0  0  0  0  0  0  0  0  0  0  0  0
   61.6305   79.7622   34.9317 H   0  0  0  0  0  0  0  0  0  0  0  0
   60.8819   81.4090   35.0544 H   0  0  0  0  0  0  0  0  0  0  0  0
   61.6120   80.4040   32.3790 H   0  0  0  0  0  0  0  0  0  0  0  0
   60.0934   83.1402   30.8422 H   0  0  0  0  0  0  0  0  0  0  0  0
   59.3346   82.9323   28.4741 H   0  0  0  0  0  0  0  0  0  0  0  0
   58.2077   80.8588   27.6956 H   0  0  0  0  0  0  0  0  0  0  0  0
   58.3070   77.8500   29.1070 H   0  0  0  0  0  0  0  0  0  0  0  0
   54.1790   76.1231   29.9502 H   0  0  0  0  0  0  0  0  0  0  0  0
   52.8408   77.1589   28.1368 H   0  0  0  0  0  0  0  0  0  0  0  0
   53.5752   77.5938   25.0175 H   0  0  0  0  0  0  0  0  0  0  0  0
   52.1693   83.8098   25.1188 H   0  0  0  0  0  0  0  0  0  0  0  0
   53.3044   83.7699   27.4026 H   0  0  0  0  0  0  0  0  0  0  0  0
   54.1617   81.6120   28.2469 H   0  0  0  0  0  0  0  0  0  0  0  0
   58.6014   79.1596   31.6388 H   0  0  0  0  0  0  0  0  0  0  0  0
  1  2  1  0
  2  3  1  0
  3  4  1  0
  4  5  1  0
  3  6  1  0
  6  7  1  0
  7  8  1  0
  8  9  1  0
  9 10  2  0
  9 11  1  0
 11 12  1  0
 12 13  2  0
 13 14  1  0
 14 15  2  0
 15 16  1  0
 16 17  1  0
 17 18  2  0
 18 19  1  0
 19 20  2  0
 20 21  1  0
 21 22  1  0
 22 23  1  0
 23 24  2  0
 24 25  1  0
 25 26  1  0
 26 27  2  0
 27 28  1  0
 28 29  2  0
 29 30  1  0
 21 31  2  0
 15 32  1  0
 32 11  2  0
 31 17  1  0
 30 22  2  0
 30 25  1  0
  1 33  1  0
  1 34  1  0
  1 35  1  0
  2 36  1  0
  2 37  1  0
  4 38  1  0
  4 39  1  0
  5 40  1  0
  5 41  1  0
  5 42  1  0
  6 43  1  0
  6 44  1  0
  7 45  1  0
  7 46  1  0
  8 47  1  0
 12 48  1  0
 13 49  1  0
 14 50  1  0
 16 51  1  0
 19 52  1  0
 20 53  1  0
 23 54  1  0
 27 55  1  0
 28 56  1  0
 29 57  1  0
 32 58  1  0
M  END
>  <meeko>  (1) 
{"is_sidechain": false}

>  <smiles>  (1) 
CCN(CC)CCNC(=O)c1cccc(Nc2nccc(-c3cnn4ncccc34)n2)c1

>  <vina_score>  (1) 
-8.446

>  <job_id>  (1) 
00f637d55013b758

$$$$
