
     RDKit          3D

 62 64  0  0  0  0  0  0  0  0999 V2000
   65.6240   81.8080   31.0200 C   0  0  0  0  0  0  0  0  0  0  0  0
   64.4910   82.3650   31.4850 C   0  0  0  0  0  0  0  0  0  0  0  0
   63.7420   81.7320   32.6310 C   0  0  0  0  0  0  0  0  0  0  0  0
   63.8460   83.6400   30.9230 C   0  0  2  0  0  0  0  0  0  0  0  0
   64.7090   84.3550   29.8700 C   0  0  0  0  0  0  0  0  0  0  0  0
   63.4700   84.6000   32.0700 C   0  0  0  0  0  0  0  0  0  0  0  0
   61.7740   85.2720   31.9080 S   0  0  0  0  0  4  0  0  0  0  0  0
   61.0970   83.9220   31.0760 N   0  0  0  0  0  0  0  0  0  0  0  0
   60.4430   83.0420   31.8480 C   0  0  0  0  0  0  0  0  0  0  0  0
   60.3470   83.0300   33.0770 O   0  0  0  0  0  0  0  0  0  0  0  0
   59.7690   81.9290   31.0930 C   0  0  0  0  0  0  0  0  0  0  0  0
   59.9130   81.8720   29.7020 C   0  0  0  0  0  0  0  0  0  0  0  0
   59.3080   80.8500   28.9550 C   0  0  0  0  0  0  0  0  0  0  0  0
   58.5510   79.8530   29.5740 C   0  0  0  0  0  0  0  0  0  0  0  0
   57.9230   78.8040   28.8920 N   0  0  0  0  0  0  0  0  0  0  0  0
   56.6050   78.3830   28.7670 C   0  0  0  0  0  0  0  0  0  0  0  0
   56.0260   77.5650   29.6610 N   0  0  0  0  0  0  0  0  0  0  0  0
   54.7430   77.2120   29.4460 C   0  0  0  0  0  0  0  0  0  0  0  0
   54.0120   77.6540   28.3770 C   0  0  0  0  0  0  0  0  0  0  0  0
   52.7370   77.2800   28.2070 F   0  0  0  0  0  0  0  0  0  0  0  0
   54.6690   78.5030   27.5170 C   0  0  0  0  0  0  0  0  0  0  0  0
   54.0350   79.0460   26.3220 C   0  0  0  0  0  0  0  0  0  0  0  0
   53.3890   78.3530   25.3140 C   0  0  0  0  0  0  0  0  0  0  0  0
   52.9370   79.1860   24.3340 N   0  0  0  0  0  0  0  0  0  0  0  0
   53.2850   80.3970   24.7120 C   0  0  0  0  0  0  0  0  0  0  0  0
   53.0170   81.6280   23.9220 C   0  0  0  0  0  0  0  0  0  0  0  0
   53.9240   80.3740   25.9450 N   0  0  0  0  0  0  0  0  0  0  0  0
   54.3180   81.5790   26.6770 C   0  0  0  0  0  0  0  0  0  0  0  0
   55.5600   82.2890   26.1300 C   0  0  0  0  0  0  0  0  0  0  0  0
   53.1500   82.5370   26.9080 C   0  0  0  0  0  0  0  0  0  0  0  0
   55.9590   78.8630   27.6870 N   0  0  0  0  0  0  0  0  0  0  0  0
   58.4020   79.9230   30.9700 C   0  0  0  0  0  0  0  0  0  0  0  0
   59.0030   80.9410   31.7200 C   0  0  0  0  0  0  0  0  0  0  0  0
   66.1641   82.2761   30.1838 H   0  0  0  0  0  0  0  0  0  0  0  0
   66.0102   80.8845   31.4760 H   0  0  0  0  0  0  0  0  0  0  0  0
   64.1618   82.0867   33.5839 H   0  0  0  0  0  0  0  0  0  0  0  0
   62.6793   82.0098   32.5725 H   0  0  0  0  0  0  0  0  0  0  0  0
   63.8387   80.6378   32.5725 H   0  0  0  0  0  0  0  0  0  0  0  0
   62.9336   83.3220   30.3972 H   0  0  0  0  0  0  0  0  0  0  0  0
   65.4616   84.9786   30.3747 H   0  0  0  0  0  0  0  0  0  0  0  0
   65.2144   83.6073   29.2410 H   0  0  0  0  0  0  0  0  0  0  0  0
   64.0683   84.9906   29.2410 H   0  0  0  0  0  0  0  0  0  0  0  0
   63.5421   84.0545   33.0225 H   0  0  0  0  0  0  0  0  0  0  0  0
   64.1674   85.4498   32.0319 H   0  0  0  0  0  0  0  0  0  0  0  0
   61.3240   85.0000   33.1590 H   0  0  0  0  0  0  0  0  0  0  0  0
   60.5092   82.6396   29.1869 H   0  0  0  0  0  0  0  0  0  0  0  0
   59.4322   80.8338   27.8622 H   0  0  0  0  0  0  0  0  0  0  0  0
   58.5150   78.2450   28.2970 H   0  0  0  0  0  0  0  0  0  0  0  0
   54.2596   76.5350   30.1657 H   0  0  0  0  0  0  0  0  0  0  0  0
   53.2560   77.2611   25.3043 H   0  0  0  0  0  0  0  0  0  0  0  0
   52.8337   82.4699   24.6058 H   0  0  0  0  0  0  0  0  0  0  0  0
   53.8871   81.8534   23.2879 H   0  0  0  0  0  0  0  0  0  0  0  0
   52.1319   81.4713   23.2879 H   0  0  0  0  0  0  0  0  0  0  0  0
   54.6290   81.2054   27.6637 H   0  0  0  0  0  0  0  0  0  0  0  0
   56.1789   82.6428   26.9677 H   0  0  0  0  0  0  0  0  0  0  0  0
   56.1423   81.5873   25.5147 H   0  0  0  0  0  0  0  0  0  0  0  0
   55.2508   83.1468   25.5147 H   0  0  0  0  0  0  0  0  0  0  0  0
   52.9910   82.6674   27.9886 H   0  0  0  0  0  0  0  0  0  0  0  0
   53.3787   83.5110   26.4508 H   0  0  0  0  0  0  0  0  0  0  0  0
   52.2396   82.1221   26.4508 H   0  0  0  0  0  0  0  0  0  0  0  0
   57.7993   79.1604   31.4850 H   0  0  0  0  0  0  0  0  0  0  0  0
   58.8716   80.9640   32.8119 H   0  0  0  0  0  0  0  0  0  0  0  0
  1  2  2  0
  2  3  1  0
  2  4  1  0
  4  5  1  0
  4  6  1  0
  6  7  1  0
  7  8  2  3
  8  9  1  0
  9 10  2  0
  9 11  1  0
 11 12  1  0
 12 13  2  0
 13 14  1  0
 14 15  1  0
 15 16  1  0
 16 17  2  0
 17 18  1  0
 18 19  2  0
 19 20  1  0
 19 21  1  0
 21 22  1  0
 22 23  2  0
 23 24  1  0
 24 25  2  0
 25 26  1  0
 25 27  1  0
 27 28  1  0
 28 29  1  0
 28 30  1  0
 21 31  2  0
 14 32  2  0
 32 33  1  0
 33 11  2  0
 31 16  1  0
 27 22  1  0
  1 34  1  0
  1 35  1  0
  3 36  1  0
  3 37  1  0
  3 38  1  0
  4 39  1  6
  5 40  1  0
  5 41  1  0
  5 42  1  0
  6 43  1  0
  6 44  1  0
  7 45  1  0
 12 46  1  0
 13 47  1  0
 15 48  1  0
 18 49  1  0
 23 50  1  0
 26 51  1  0
 26 52  1  0
 26 53  1  0
 28 54  1  0
 29 55  1  0
 29 56  1  0
 29 57  1  0
 30 58  1  0
 30 59  1  0
 30 60  1  0
 32 61  1  0
 33 62  1  0
M  END
>  <meeko>  (1) 
{"is_sidechain": false}

>  <smiles>  (1) 
C=C(C)[C@H](C)C[SH]=NC(=O)c1ccc(Nc2ncc(F)c(-c3cnc(C)n3C(C)C)n2)cc1

>  <vina_score>  (1) 
-8.763

>  <job_id>  (1) 
01a2810a6b30ef0d

$$$$
