
     RDKit          3D

 36 38  0  0  0  0  0  0  0  0999 V2000
   49.7850   81.3570   22.0190 N   0  0  0  0  0  0  0  0  0  0  0  0
   51.4280   81.6910   21.8750 S   0  0  0  0  0  0  0  0  0  0  0  0
   51.6110   83.1120   22.0420 O   0  0  0  0  0  0  0  0  0  0  0  0
   51.8680   80.9820   20.6940 O   0  0  0  0  0  0  0  0  0  0  0  0
   52.0810   80.8670   23.3020 C   0  0  0  0  0  0  0  0  0  0  0  0
   52.7560   79.6560   23.1470 C   0  0  0  0  0  0  0  0  0  0  0  0
   53.2680   79.0070   24.2750 C   0  0  0  0  0  0  0  0  0  0  0  0
   53.1120   79.5500   25.5590 C   0  0  0  0  0  0  0  0  0  0  0  0
   53.6150   78.8410   26.6630 N   0  0  0  0  0  0  0  0  0  0  0  0
   54.8260   78.9360   27.3700 C   0  0  0  0  0  0  0  0  0  0  0  0
   55.1050   78.1910   28.5160 C   0  0  0  0  0  0  0  0  0  0  0  0
   56.3130   78.3530   29.2100 C   0  0  0  0  0  0  0  0  0  0  0  0
   57.2900   79.2720   28.7950 C   0  0  0  0  0  0  0  0  0  0  0  0
   58.6110   79.4820   29.5130 C   0  0  0  0  0  0  0  0  0  0  0  0
   58.6930   80.3170   30.7690 C   0  0  0  0  0  0  0  0  0  0  0  0
   59.3100   80.8200   29.4940 C   0  0  0  0  0  0  0  0  0  0  0  0
   56.9920   80.0200   27.6450 C   0  0  0  0  0  0  0  0  0  0  0  0
   55.7870   79.8590   26.9480 C   0  0  0  0  0  0  0  0  0  0  0  0
   52.4140   80.7590   25.6890 C   0  0  0  0  0  0  0  0  0  0  0  0
   51.8980   81.4200   24.5700 C   0  0  0  0  0  0  0  0  0  0  0  0
   49.3440   81.8350   22.8040 H   0  0  0  0  0  0  0  0  0  0  0  0
   49.6570   80.3450   22.0690 H   0  0  0  0  0  0  0  0  0  0  0  0
   52.8843   79.2158   22.1471 H   0  0  0  0  0  0  0  0  0  0  0  0
   53.8027   78.0535   24.1532 H   0  0  0  0  0  0  0  0  0  0  0  0
   52.9610   78.1810   27.0690 H   0  0  0  0  0  0  0  0  0  0  0  0
   54.3648   77.4640   28.8816 H   0  0  0  0  0  0  0  0  0  0  0  0
   56.5004   77.7423   30.1055 H   0  0  0  0  0  0  0  0  0  0  0  0
   58.8900   78.4537   29.2395 H   0  0  0  0  0  0  0  0  0  0  0  0
   57.7884   80.7983   31.1691 H   0  0  0  0  0  0  0  0  0  0  0  0
   59.0558   80.1463   31.7933 H   0  0  0  0  0  0  0  0  0  0  0  0
   58.8567   81.6693   28.9619 H   0  0  0  0  0  0  0  0  0  0  0  0
   60.3109   81.1694   29.2004 H   0  0  0  0  0  0  0  0  0  0  0  0
   57.7258   80.7539   27.2804 H   0  0  0  0  0  0  0  0  0  0  0  0
   55.5941   80.4695   26.0535 H   0  0  0  0  0  0  0  0  0  0  0  0
   52.2698   81.1951   26.6885 H   0  0  0  0  0  0  0  0  0  0  0  0
   51.3525   82.3678   24.6883 H   0  0  0  0  0  0  0  0  0  0  0  0
  1  2  1  0
  2  3  2  0
  2  4  2  0
  2  5  1  0
  5  6  1  0
  6  7  2  0
  7  8  1  0
  8  9  1  0
  9 10  1  0
 10 11  1  0
 11 12  2  0
 12 13  1  0
 13 14  1  0
 14 15  1  0
 15 16  1  0
 13 17  2  0
 17 18  1  0
  8 19  2  0
 19 20  1  0
 20  5  2  0
 18 10  2  0
 16 14  1  0
  1 21  1  0
  1 22  1  0
  6 23  1  0
  7 24  1  0
  9 25  1  0
 11 26  1  0
 12 27  1  0
 14 28  1  0
 15 29  1  0
 15 30  1  0
 16 31  1  0
 16 32  1  0
 17 33  1  0
 18 34  1  0
 19 35  1  0
 20 36  1  0
M  END
>  <meeko>  (1) 
{"is_sidechain": false}

>  <smiles>  (1) 
NS(=O)(=O)c1ccc(Nc2ccc(C3CC3)cc2)cc1

>  <vina_score>  (1) 
-8.067

>  <job_id>  (1) 
0217d6793c9383a8

$$$$
