
     RDKit          3D

 55 57  0  0  0  0  0  0  0  0999 V2000
   52.5600   83.2320   26.5310 C   0  0  0  0  0  0  0  0  0  0  0  0
   53.4960   83.4030   25.3340 C   0  0  2  0  0  0  0  0  0  0  0  0
   53.6100   84.8280   25.0220 N   0  0  0  0  0  0  0  0  0  0  0  0
   52.9530   82.7490   24.1920 O   0  0  0  0  0  0  0  0  0  0  0  0
   52.9710   81.3720   24.2240 C   0  0  0  0  0  0  0  0  0  0  0  0
   53.3750   80.7430   25.3450 N   0  0  0  0  0  0  0  0  0  0  0  0
   53.3560   79.4040   25.3480 C   0  0  0  0  0  0  0  0  0  0  0  0
   53.7420   78.6550   26.4530 N   0  0  0  0  0  0  0  0  0  0  0  0
   54.8070   78.7210   27.3570 C   0  0  0  0  0  0  0  0  0  0  0  0
   55.8900   79.5610   27.0590 C   0  0  0  0  0  0  0  0  0  0  0  0
   56.9960   79.6590   27.9120 C   0  0  0  0  0  0  0  0  0  0  0  0
   57.0670   78.9020   29.0830 C   0  0  0  0  0  0  0  0  0  0  0  0
   58.1410   79.0230   29.9890 N   0  0  0  0  0  0  0  0  0  0  0  0
   58.1120   79.9020   31.0370 N   0  0  0  0  0  0  0  0  0  0  0  0
   59.1250   80.8640   31.2370 C   0  0  0  0  0  0  0  0  0  0  0  0
   59.6540   81.6100   30.1740 C   0  0  0  0  0  0  0  0  0  0  0  0
   60.6970   82.5170   30.3800 C   0  0  0  0  0  0  0  0  0  0  0  0
   61.2420   82.6550   31.6570 C   0  0  0  0  0  0  0  0  0  0  0  0
   62.5750   83.7990   31.9080 S   0  0  0  0  0  0  0  0  0  0  0  0
   62.3380   84.9390   31.0400 O   0  0  0  0  0  0  0  0  0  0  0  0
   62.7430   83.9820   33.3400 O   0  0  0  0  0  0  0  0  0  0  0  0
   64.3100   82.8450   31.2320 S   0  0  0  0  0  5  0  0  0  0  0  0
   64.9340   83.6030   29.8980 O   0  0  0  0  0  0  0  0  0  0  0  0
   63.9970   81.3580   30.6450 O   0  0  0  0  0  0  0  0  0  0  0  0
   60.7500   81.9050   32.7260 C   0  0  0  0  0  0  0  0  0  0  0  0
   59.7040   81.0040   32.5080 C   0  0  0  0  0  0  0  0  0  0  0  0
   55.9760   78.0880   29.4020 C   0  0  0  0  0  0  0  0  0  0  0  0
   54.8710   77.9900   28.5440 C   0  0  0  0  0  0  0  0  0  0  0  0
   52.9470   78.6810   24.2930 N   0  0  0  0  0  0  0  0  0  0  0  0
   52.5460   79.3510   23.1940 C   0  0  0  0  0  0  0  0  0  0  0  0
   52.5300   80.7180   23.1020 C   0  0  0  0  0  0  0  0  0  0  0  0
   52.0770   81.4280   21.8840 C   0  0  0  0  0  0  0  0  0  0  0  0
   53.0970   81.9470   21.1470 F   0  0  0  0  0  0  0  0  0  0  0  0
   51.3950   80.6130   21.0250 F   0  0  0  0  0  0  0  0  0  0  0  0
   51.2260   82.4590   22.1440 F   0  0  0  0  0  0  0  0  0  0  0  0
   53.1342   83.3369   27.4634 H   0  0  0  0  0  0  0  0  0  0  0  0
   51.7748   84.0016   26.4954 H   0  0  0  0  0  0  0  0  0  0  0  0
   52.0976   82.2345   26.4954 H   0  0  0  0  0  0  0  0  0  0  0  0
   54.4768   82.9717   25.5831 H   0  0  0  0  0  0  0  0  0  0  0  0
   53.5300   84.9620   24.0170 H   0  0  0  0  0  0  0  0  0  0  0  0
   54.5450   85.1320   25.2830 H   0  0  0  0  0  0  0  0  0  0  0  0
   53.0950   77.8880   26.5690 H   0  0  0  0  0  0  0  0  0  0  0  0
   55.8700   80.1563   26.1342 H   0  0  0  0  0  0  0  0  0  0  0  0
   57.8199   80.3415   27.6562 H   0  0  0  0  0  0  0  0  0  0  0  0
   59.0500   78.9220   29.5330 H   0  0  0  0  0  0  0  0  0  0  0  0
   57.1830   80.2480   31.2820 H   0  0  0  0  0  0  0  0  0  0  0  0
   59.2417   81.4793   29.1626 H   0  0  0  0  0  0  0  0  0  0  0  0
   61.0847   83.1165   29.5432 H   0  0  0  0  0  0  0  0  0  0  0  0
   65.2410   82.7760   32.2100 H   0  0  0  0  0  0  0  0  0  0  0  0
   64.6990   80.7200   30.9180 H   0  0  0  0  0  0  0  0  0  0  0  0
   61.1815   82.0219   33.7311 H   0  0  0  0  0  0  0  0  0  0  0  0
   59.3291   80.3959   33.3445 H   0  0  0  0  0  0  0  0  0  0  0  0
   55.9845   77.5152   30.3411 H   0  0  0  0  0  0  0  0  0  0  0  0
   54.0380   77.3235   28.8121 H   0  0  0  0  0  0  0  0  0  0  0  0
   52.2132   78.7678   22.3227 H   0  0  0  0  0  0  0  0  0  0  0  0
  1  2  1  0
  2  3  1  0
  2  4  1  0
  4  5  1  0
  5  6  2  0
  6  7  1  0
  7  8  1  0
  8  9  1  0
  9 10  1  0
 10 11  2  0
 11 12  1  0
 12 13  1  0
 13 14  1  0
 14 15  1  0
 15 16  1  0
 16 17  2  0
 17 18  1  0
 18 19  1  0
 19 20  2  0
 19 21  2  0
 19 22  1  0
 22 23  2  0
 22 24  1  0
 18 25  2  0
 25 26  1  0
 12 27  2  0
 27 28  1  0
  7 29  2  0
 29 30  1  0
 30 31  2  0
 31 32  1  0
 32 33  1  0
 32 34  1  0
 32 35  1  0
 31  5  1  0
 28  9  2  0
 26 15  2  0
  1 36  1  0
  1 37  1  0
  1 38  1  0
  2 39  1  1
  3 40  1  0
  3 41  1  0
  8 42  1  0
 10 43  1  0
 11 44  1  0
 13 45  1  0
 14 46  1  0
 16 47  1  0
 17 48  1  0
 22 49  1  0
 24 50  1  0
 25 51  1  0
 26 52  1  0
 27 53  1  0
 28 54  1  0
 30 55  1  0
M  RAD  1  22   2
M  END
>  <meeko>  (1) 
{"is_sidechain": false}

>  <smiles>  (1) 
C[C@H](N)Oc1nc(Nc2ccc(NNc3ccc(S(=O)(=O)[SH](=O)O)cc3)cc2)ncc1C(F)(F)F

>  <vina_score>  (1) 
-8.859

>  <job_id>  (1) 
024e71eed8560fb3

$$$$
