
     RDKit          3D

 51 55  0  0  0  0  0  0  0  0999 V2000
   53.9230   78.9470   24.3790 N   0  0  0  0  0  0  0  0  0  0  0  0
   53.3320   78.8750   25.9540 S   0  0  0  0  0  0  0  0  0  0  0  0
   52.9350   77.5010   26.1570 O   0  0  0  0  0  0  0  0  0  0  0  0
   52.4290   79.9840   26.1450 O   0  0  0  0  0  0  0  0  0  0  0  0
   54.8030   79.1820   26.8970 C   0  0  0  0  0  0  0  0  0  0  0  0
   55.6470   80.2320   26.5260 C   0  0  0  0  0  0  0  0  0  0  0  0
   56.8030   80.4790   27.2700 C   0  0  0  0  0  0  0  0  0  0  0  0
   57.1240   79.6860   28.3790 C   0  0  0  0  0  0  0  0  0  0  0  0
   58.2820   79.9790   29.1200 N   0  0  0  0  0  0  0  0  0  0  0  0
   58.1990   81.1150   29.6360 N   0  0  0  0  0  0  0  0  0  0  0  0
   59.3510   81.4060   30.3900 C   0  0  0  0  0  0  0  0  0  0  0  0
   60.4410   82.0940   29.8440 C   0  0  0  0  0  0  0  0  0  0  0  0
   61.5590   82.3950   30.6280 C   0  0  0  0  0  0  0  0  0  0  0  0
   61.5940   82.0360   31.9800 C   0  0  0  0  0  0  0  0  0  0  0  0
   62.7250   82.3210   32.7680 N   0  0  0  0  0  0  0  0  0  0  0  0
   62.8560   83.4740   33.2560 N   0  0  0  0  0  0  0  0  0  0  0  0
   61.9670   84.4880   33.0490 C   0  0  0  0  0  0  0  0  0  0  0  0
   60.7500   84.7010   33.9060 C   0  0  0  0  0  0  0  0  0  0  0  0
   60.3840   84.0240   34.8490 O   0  0  0  0  0  0  0  0  0  0  0  0
   60.1140   85.8180   33.4040 N   0  0  0  0  0  0  0  0  0  0  0  0
   60.8030   86.3220   32.3580 C   0  0  0  0  0  0  0  0  0  0  0  0
   60.5240   87.3800   31.5910 C   0  0  0  0  0  0  0  0  0  0  0  0
   61.4260   87.7320   30.5000 C   0  0  0  0  0  0  0  0  0  0  0  0
   62.5590   87.0420   30.2310 C   0  0  0  0  0  0  0  0  0  0  0  0
   63.4350   87.3570   29.2080 N   0  0  0  0  0  0  0  0  0  0  0  0
   64.6000   86.6650   28.9910 C   0  0  0  0  0  0  0  0  0  0  0  0
   64.9540   85.6180   29.7510 C   0  0  0  0  0  0  0  0  0  0  0  0
   64.0750   85.2060   30.8340 C   0  0  0  0  0  0  0  0  0  0  0  0
   62.9160   85.8570   31.0880 C   0  0  0  0  0  0  0  0  0  0  0  0
   61.9810   85.4960   32.1560 C   0  0  0  0  0  0  0  0  0  0  0  0
   60.5100   81.3390   32.5240 C   0  0  0  0  0  0  0  0  0  0  0  0
   59.3920   81.0380   31.7380 C   0  0  0  0  0  0  0  0  0  0  0  0
   56.2500   78.6530   28.7520 C   0  0  0  0  0  0  0  0  0  0  0  0
   55.0910   78.3960   28.0150 C   0  0  0  0  0  0  0  0  0  0  0  0
   54.9390   78.8860   24.3230 H   0  0  0  0  0  0  0  0  0  0  0  0
   53.4650   78.2240   23.8210 H   0  0  0  0  0  0  0  0  0  0  0  0
   55.4031   80.8587   25.6555 H   0  0  0  0  0  0  0  0  0  0  0  0
   57.4689   81.3057   26.9817 H   0  0  0  0  0  0  0  0  0  0  0  0
   60.4178   82.4008   28.7879 H   0  0  0  0  0  0  0  0  0  0  0  0
   62.4166   82.9174   30.1790 H   0  0  0  0  0  0  0  0  0  0  0  0
   59.2560   86.1810   33.7920 H   0  0  0  0  0  0  0  0  0  0  0  0
   59.6220   87.9803   31.7807 H   0  0  0  0  0  0  0  0  0  0  0  0
   61.1743   88.5964   29.8680 H   0  0  0  0  0  0  0  0  0  0  0  0
   63.2350   88.1640   28.6310 H   0  0  0  0  0  0  0  0  0  0  0  0
   65.2624   86.9779   28.1704 H   0  0  0  0  0  0  0  0  0  0  0  0
   65.8938   85.0798   29.5583 H   0  0  0  0  0  0  0  0  0  0  0  0
   64.3582   84.3470   31.4600 H   0  0  0  0  0  0  0  0  0  0  0  0
   60.5366   81.0250   33.5779 H   0  0  0  0  0  0  0  0  0  0  0  0
   58.5382   80.5074   32.1847 H   0  0  0  0  0  0  0  0  0  0  0  0
   56.4801   78.0385   29.6349 H   0  0  0  0  0  0  0  0  0  0  0  0
   54.4124   77.5829   28.3123 H   0  0  0  0  0  0  0  0  0  0  0  0
  1  2  1  0
  2  3  2  0
  2  4  2  0
  2  5  1  0
  5  6  1  0
  6  7  2  0
  7  8  1  0
  8  9  1  0
  9 10  2  3
 10 11  1  0
 11 12  1  0
 12 13  2  0
 13 14  1  0
 14 15  1  0
 15 16  2  3
 16 17  1  0
 17 18  1  0
 18 19  2  0
 18 20  1  0
 20 21  1  0
 21 22  2  0
 22 23  1  0
 23 24  2  0
 24 25  1  0
 25 26  1  0
 26 27  2  0
 27 28  1  0
 28 29  2  0
 29 30  1  0
 14 31  2  0
 31 32  1  0
  8 33  2  0
 33 34  1  0
 34  5  2  0
 32 11  2  0
 30 17  2  0
 30 21  1  0
 29 24  1  0
  1 35  1  0
  1 36  1  0
  6 37  1  0
  7 38  1  0
 12 39  1  0
 13 40  1  0
 20 41  1  0
 22 42  1  0
 23 43  1  0
 25 44  1  0
 26 45  1  0
 27 46  1  0
 28 47  1  0
 31 48  1  0
 32 49  1  0
 33 50  1  0
 34 51  1  0
M  END
>  <meeko>  (1) 
{"is_sidechain": false}

>  <smiles>  (1) 
NS(=O)(=O)c1ccc(N=Nc2ccc(N=Nc3c(=O)[nH]c4ccc5[nH]cccc5c34)cc2)cc1

>  <vina_score>  (1) 
-7.492

>  <job_id>  (1) 
026f5a2350b7847d

$$$$
