
     RDKit          3D

 61 65  0  0  0  0  0  0  0  0999 V2000
   66.7170   88.4240   26.7300 C   0  0  0  0  0  0  0  0  0  0  0  0
   65.9960   87.6740   27.7560 N   0  0  0  0  0  0  0  0  0  0  0  0
   65.6650   86.3160   27.2710 C   0  0  0  0  0  0  0  0  0  0  0  0
   64.9370   85.4670   28.3400 C   0  0  0  0  0  0  0  0  0  0  0  0
   65.7470   85.3800   29.5730 N   0  0  0  0  0  0  0  0  0  0  0  0
   65.3280   84.4890   30.5750 C   0  0  0  0  0  0  0  0  0  0  0  0
   64.2650   83.6090   30.3120 C   0  0  0  0  0  0  0  0  0  0  0  0
   63.8090   82.6980   31.2720 C   0  0  0  0  0  0  0  0  0  0  0  0
   64.4120   82.6290   32.5240 C   0  0  0  0  0  0  0  0  0  0  0  0
   63.9380   81.7080   33.4690 N   0  0  0  0  0  0  0  0  0  0  0  0
   62.8960   81.9890   34.1880 C   0  0  0  0  0  0  0  0  0  0  0  0
   62.0820   83.2340   34.2560 C   0  0  0  0  0  0  0  0  0  0  0  0
   62.5750   84.3250   35.1400 C   0  0  0  0  0  0  0  0  0  0  0  0
   63.6130   84.2190   35.7840 O   0  0  0  0  0  0  0  0  0  0  0  0
   61.8090   85.4550   35.1920 N   0  0  0  0  0  0  0  0  0  0  0  0
   60.6590   85.6450   34.4950 C   0  0  0  0  0  0  0  0  0  0  0  0
   60.1000   86.8660   34.7500 O   0  0  0  0  0  0  0  0  0  0  0  0
   60.1890   84.6940   33.6600 C   0  0  0  0  0  0  0  0  0  0  0  0
   58.9460   84.8300   32.8960 C   0  0  0  0  0  0  0  0  0  0  0  0
   58.5550   83.8570   32.0570 C   0  0  0  0  0  0  0  0  0  0  0  0
   59.3320   82.6380   31.8550 C   0  0  0  0  0  0  0  0  0  0  0  0
   58.9050   81.5890   30.9110 C   0  0  0  0  0  0  0  0  0  0  0  0
   58.1870   80.4760   31.3690 C   0  0  0  0  0  0  0  0  0  0  0  0
   57.7790   79.4810   30.4760 C   0  0  0  0  0  0  0  0  0  0  0  0
   58.0870   79.6060   29.1190 C   0  0  0  0  0  0  0  0  0  0  0  0
   57.6520   78.5530   28.1780 C   0  0  0  0  0  0  0  0  0  0  0  0
   56.6740   77.8490   28.3950 O   0  0  0  0  0  0  0  0  0  0  0  0
   58.7970   80.7150   28.6520 C   0  0  0  0  0  0  0  0  0  0  0  0
   59.2060   81.7050   29.5470 C   0  0  0  0  0  0  0  0  0  0  0  0
   60.4770   82.4400   32.5420 C   0  0  0  0  0  0  0  0  0  0  0  0
   60.9650   83.4260   33.5180 C   0  0  0  0  0  0  0  0  0  0  0  0
   65.4310   83.5340   32.8230 C   0  0  0  0  0  0  0  0  0  0  0  0
   65.8860   84.4450   31.8610 C   0  0  0  0  0  0  0  0  0  0  0  0
   66.1170   86.7200   30.0890 C   0  0  0  0  0  0  0  0  0  0  0  0
   66.8090   87.5570   28.9860 C   0  0  0  0  0  0  0  0  0  0  0  0
   67.4026   89.1372   27.2109 H   0  0  0  0  0  0  0  0  0  0  0  0
   67.2931   87.7273   26.1033 H   0  0  0  0  0  0  0  0  0  0  0  0
   65.9981   88.9722   26.1033 H   0  0  0  0  0  0  0  0  0  0  0  0
   65.0147   86.4053   26.3883 H   0  0  0  0  0  0  0  0  0  0  0  0
   66.6099   85.8083   27.0271 H   0  0  0  0  0  0  0  0  0  0  0  0
   63.9691   85.9337   28.5751 H   0  0  0  0  0  0  0  0  0  0  0  0
   64.7830   84.4525   27.9437 H   0  0  0  0  0  0  0  0  0  0  0  0
   63.7783   83.6366   29.3259 H   0  0  0  0  0  0  0  0  0  0  0  0
   62.9670   82.0312   31.0346 H   0  0  0  0  0  0  0  0  0  0  0  0
   62.5603   81.1795   34.8529 H   0  0  0  0  0  0  0  0  0  0  0  0
   62.1270   86.2000   35.7980 H   0  0  0  0  0  0  0  0  0  0  0  0
   59.8990   86.9380   35.6940 H   0  0  0  0  0  0  0  0  0  0  0  0
   58.3298   85.7340   33.0103 H   0  0  0  0  0  0  0  0  0  0  0  0
   57.6141   83.9834   31.5013 H   0  0  0  0  0  0  0  0  0  0  0  0
   57.9430   80.3848   32.4377 H   0  0  0  0  0  0  0  0  0  0  0  0
   57.2196   78.6062   30.8390 H   0  0  0  0  0  0  0  0  0  0  0  0
   58.2255   78.3965   27.2524 H   0  0  0  0  0  0  0  0  0  0  0  0
   59.0331   80.8077   27.5816 H   0  0  0  0  0  0  0  0  0  0  0  0
   59.7659   82.5783   29.1810 H   0  0  0  0  0  0  0  0  0  0  0  0
   61.0573   81.5218   32.3682 H   0  0  0  0  0  0  0  0  0  0  0  0
   65.8825   83.5321   33.8261 H   0  0  0  0  0  0  0  0  0  0  0  0
   66.6980   85.1405   32.1197 H   0  0  0  0  0  0  0  0  0  0  0  0
   65.2083   87.2424   30.4225 H   0  0  0  0  0  0  0  0  0  0  0  0
   66.8150   86.5956   30.9300 H   0  0  0  0  0  0  0  0  0  0  0  0
   66.9984   88.5669   29.3788 H   0  0  0  0  0  0  0  0  0  0  0  0
   67.7421   87.0405   28.7167 H   0  0  0  0  0  0  0  0  0  0  0  0
  1  2  1  0
  2  3  1  0
  3  4  1  0
  4  5  1  0
  5  6  1  0
  6  7  1  0
  7  8  2  0
  8  9  1  0
  9 10  1  0
 10 11  2  3
 11 12  1  0
 12 13  1  0
 13 14  2  0
 13 15  1  0
 15 16  1  0
 16 17  1  0
 16 18  2  0
 18 19  1  0
 19 20  2  0
 20 21  1  0
 21 22  1  0
 22 23  1  0
 23 24  2  0
 24 25  1  0
 25 26  1  0
 26 27  2  0
 25 28  2  0
 28 29  1  0
 21 30  2  0
 30 31  1  0
  9 32  2  0
 32 33  1  0
  5 34  1  0
 34 35  1  0
 35  2  1  0
 33  6  2  0
 31 12  2  0
 31 18  1  0
 29 22  2  0
  1 36  1  0
  1 37  1  0
  1 38  1  0
  3 39  1  0
  3 40  1  0
  4 41  1  0
  4 42  1  0
  7 43  1  0
  8 44  1  0
 11 45  1  0
 15 46  1  0
 17 47  1  0
 19 48  1  0
 20 49  1  0
 23 50  1  0
 24 51  1  0
 26 52  1  0
 28 53  1  0
 29 54  1  0
 30 55  1  0
 32 56  1  0
 33 57  1  0
 34 58  1  0
 34 59  1  0
 35 60  1  0
 35 61  1  0
M  END
>  <meeko>  (1) 
{"is_sidechain": false}

>  <smiles>  (1) 
CN1CCN(c2ccc(N=Cc3c(=O)[nH]c(O)c4ccc(-c5ccc(C=O)cc5)cc34)cc2)CC1

>  <vina_score>  (1) 
-6.664

>  <job_id>  (1) 
02c0b9cccc3bd529

$$$$
