
     RDKit          3D

 40 42  0  0  0  0  0  0  0  0999 V2000
   53.4520   74.9870   28.3940 N   0  0  0  0  0  0  0  0  0  0  0  0
   53.2970   76.3110   28.0870 C   0  0  0  0  0  0  0  0  0  0  0  0
   52.2840   76.7070   27.5230 O   0  0  0  0  0  0  0  0  0  0  0  0
   54.4160   77.2300   28.4240 C   0  0  0  0  0  0  0  0  0  0  0  0
   54.7170   78.3560   27.6590 C   0  0  0  0  0  0  0  0  0  0  0  0
   55.7870   79.1880   28.0230 C   0  0  0  0  0  0  0  0  0  0  0  0
   56.5910   78.9280   29.1460 C   0  0  0  0  0  0  0  0  0  0  0  0
   57.6390   79.7590   29.4980 N   0  0  0  0  0  0  0  0  0  0  0  0
   58.2290   80.7150   28.5430 C   0  0  0  0  0  0  0  0  0  0  0  0
   59.6850   81.0820   28.9140 C   0  0  0  0  0  0  0  0  0  0  0  0
   59.7950   81.6100   30.2870 N   0  0  0  0  0  0  0  0  0  0  0  0
   60.7960   82.4980   30.6450 C   0  0  0  0  0  0  0  0  0  0  0  0
   60.5140   83.8230   31.0200 C   0  0  0  0  0  0  0  0  0  0  0  0
   61.5220   84.7260   31.3840 C   0  0  0  0  0  0  0  0  0  0  0  0
   62.8510   84.3210   31.3830 C   0  0  0  0  0  0  0  0  0  0  0  0
   63.1590   83.0170   31.0200 C   0  0  0  0  0  0  0  0  0  0  0  0
   64.8010   82.4980   31.0210 Cl  0  0  0  0  0  0  0  0  0  0  0  0
   62.1500   82.1200   30.6560 C   0  0  0  0  0  0  0  0  0  0  0  0
   58.7420   81.2000   31.2330 C   0  0  0  0  0  0  0  0  0  0  0  0
   58.1500   79.8150   30.8800 C   0  0  0  0  0  0  0  0  0  0  0  0
   56.2690   77.7810   29.8900 C   0  0  0  0  0  0  0  0  0  0  0  0
   55.2060   76.9380   29.5360 C   0  0  0  0  0  0  0  0  0  0  0  0
   54.3610   74.5850   28.5730 H   0  0  0  0  0  0  0  0  0  0  0  0
   52.7370   74.3690   28.0320 H   0  0  0  0  0  0  0  0  0  0  0  0
   54.1152   78.5926   26.7691 H   0  0  0  0  0  0  0  0  0  0  0  0
   56.0038   80.0740   27.4082 H   0  0  0  0  0  0  0  0  0  0  0  0
   58.2211   80.2648   27.5394 H   0  0  0  0  0  0  0  0  0  0  0  0
   57.6291   81.6366   28.5709 H   0  0  0  0  0  0  0  0  0  0  0  0
   60.3097   80.1805   28.8302 H   0  0  0  0  0  0  0  0  0  0  0  0
   60.0213   81.8684   28.2223 H   0  0  0  0  0  0  0  0  0  0  0  0
   59.4677   84.1623   31.0280 H   0  0  0  0  0  0  0  0  0  0  0  0
   61.2610   85.7555   31.6705 H   0  0  0  0  0  0  0  0  0  0  0  0
   63.6483   85.0240   31.6660 H   0  0  0  0  0  0  0  0  0  0  0  0
   62.4225   81.0930   30.3712 H   0  0  0  0  0  0  0  0  0  0  0  0
   59.1719   81.1547   32.2445 H   0  0  0  0  0  0  0  0  0  0  0  0
   57.9298   81.9398   31.1774 H   0  0  0  0  0  0  0  0  0  0  0  0
   58.9359   79.0544   30.9974 H   0  0  0  0  0  0  0  0  0  0  0  0
   57.3046   79.6283   31.5585 H   0  0  0  0  0  0  0  0  0  0  0  0
   56.8697   77.5364   30.7784 H   0  0  0  0  0  0  0  0  0  0  0  0
   54.9940   76.0421   30.1380 H   0  0  0  0  0  0  0  0  0  0  0  0
  1  2  1  0
  2  3  2  0
  2  4  1  0
  4  5  1  0
  5  6  2  0
  6  7  1  0
  7  8  1  0
  8  9  1  0
  9 10  1  0
 10 11  1  0
 11 12  1  0
 12 13  2  0
 13 14  1  0
 14 15  2  0
 15 16  1  0
 16 17  1  0
 16 18  2  0
 11 19  1  0
 19 20  1  0
  7 21  2  0
 21 22  1  0
 22  4  2  0
 20  8  1  0
 18 12  1  0
  1 23  1  0
  1 24  1  0
  5 25  1  0
  6 26  1  0
  9 27  1  0
  9 28  1  0
 10 29  1  0
 10 30  1  0
 13 31  1  0
 14 32  1  0
 15 33  1  0
 18 34  1  0
 19 35  1  0
 19 36  1  0
 20 37  1  0
 20 38  1  0
 21 39  1  0
 22 40  1  0
M  END
>  <meeko>  (1) 
{"is_sidechain": false}

>  <smiles>  (1) 
NC(=O)c1ccc(N2CCN(c3cccc(Cl)c3)CC2)cc1

>  <vina_score>  (1) 
-7.106

>  <job_id>  (1) 
042c16bbcce87f15

$$$$
