
     RDKit          3D

 43 45  0  0  0  0  0  0  0  0999 V2000
   61.5030   82.2670   32.7060 O   0  0  0  0  0  0  0  0  0  0  0  0
   60.8250   81.2430   32.6680 C   0  0  0  0  0  0  0  0  0  0  0  0
   60.8160   80.2690   33.6420 N   0  0  0  0  0  0  0  0  0  0  0  0
   61.4350   80.3100   34.9080 C   0  0  0  0  0  0  0  0  0  0  0  0
   62.7570   79.8550   34.9910 C   0  0  0  0  0  0  0  0  0  0  0  0
   63.4360   79.8530   36.2130 C   0  0  0  0  0  0  0  0  0  0  0  0
   62.7960   80.2990   37.3650 C   0  0  0  0  0  0  0  0  0  0  0  0
   61.4780   80.7450   37.2940 C   0  0  0  0  0  0  0  0  0  0  0  0
   60.7980   80.7480   36.0720 C   0  0  0  0  0  0  0  0  0  0  0  0
   59.9980   80.9690   31.5840 N   0  0  0  0  0  0  0  0  0  0  0  0
   60.0360   81.8770   30.4360 C   0  0  0  0  0  0  0  0  0  0  0  0
   59.5870   81.1690   29.1460 C   0  0  0  0  0  0  0  0  0  0  0  0
   58.2110   80.6210   29.2080 N   0  0  0  0  0  0  0  0  0  0  0  0
   58.0470   79.4590   28.3220 C   0  0  0  0  0  0  0  0  0  0  0  0
   56.6480   78.8770   28.3440 C   0  0  0  0  0  0  0  0  0  0  0  0
   55.6170   79.4810   27.6100 C   0  0  0  0  0  0  0  0  0  0  0  0
   54.3240   78.9530   27.6360 C   0  0  0  0  0  0  0  0  0  0  0  0
   54.0500   77.8180   28.3970 C   0  0  0  0  0  0  0  0  0  0  0  0
   55.0660   77.2110   29.1330 C   0  0  0  0  0  0  0  0  0  0  0  0
   56.3590   77.7370   29.1080 C   0  0  0  0  0  0  0  0  0  0  0  0
   57.7950   80.3200   30.5910 C   0  0  0  0  0  0  0  0  0  0  0  0
   58.9360   79.9570   31.5590 C   0  0  0  0  0  0  0  0  0  0  0  0
   60.4830   79.3660   33.3460 H   0  0  0  0  0  0  0  0  0  0  0  0
   63.2665   79.4954   34.0849 H   0  0  0  0  0  0  0  0  0  0  0  0
   64.4762   79.4988   36.2637 H   0  0  0  0  0  0  0  0  0  0  0  0
   63.3283   80.2995   38.3277 H   0  0  0  0  0  0  0  0  0  0  0  0
   60.9696   81.0966   38.2039 H   0  0  0  0  0  0  0  0  0  0  0  0
   59.7558   81.0971   36.0269 H   0  0  0  0  0  0  0  0  0  0  0  0
   59.3655   82.7272   30.6297 H   0  0  0  0  0  0  0  0  0  0  0  0
   61.0721   82.2204   30.3001 H   0  0  0  0  0  0  0  0  0  0  0  0
   59.6343   81.8931   28.3193 H   0  0  0  0  0  0  0  0  0  0  0  0
   60.2641   80.3146   28.9991 H   0  0  0  0  0  0  0  0  0  0  0  0
   58.2789   79.7701   27.2927 H   0  0  0  0  0  0  0  0  0  0  0  0
   58.7297   78.6762   28.6841 H   0  0  0  0  0  0  0  0  0  0  0  0
   55.8282   80.3778   27.0090 H   0  0  0  0  0  0  0  0  0  0  0  0
   53.5221   79.4330   27.0559 H   0  0  0  0  0  0  0  0  0  0  0  0
   53.0321   77.4014   28.4167 H   0  0  0  0  0  0  0  0  0  0  0  0
   54.8488   76.3160   29.7346 H   0  0  0  0  0  0  0  0  0  0  0  0
   57.1566   77.2539   29.6916 H   0  0  0  0  0  0  0  0  0  0  0  0
   57.2795   81.2056   30.9908 H   0  0  0  0  0  0  0  0  0  0  0  0
   57.1552   79.4274   30.5279 H   0  0  0  0  0  0  0  0  0  0  0  0
   58.5200   79.8577   32.5725 H   0  0  0  0  0  0  0  0  0  0  0  0
   59.3822   79.0143   31.2095 H   0  0  0  0  0  0  0  0  0  0  0  0
  1  2  2  0
  2  3  1  0
  3  4  1  0
  4  5  2  0
  5  6  1  0
  6  7  2  0
  7  8  1  0
  8  9  2  0
  2 10  1  0
 10 11  1  0
 11 12  1  0
 12 13  1  0
 13 14  1  0
 14 15  1  0
 15 16  2  0
 16 17  1  0
 17 18  2  0
 18 19  1  0
 19 20  2  0
 13 21  1  0
 21 22  1  0
  9  4  1  0
 22 10  1  0
 20 15  1  0
  3 23  1  0
  5 24  1  0
  6 25  1  0
  7 26  1  0
  8 27  1  0
  9 28  1  0
 11 29  1  0
 11 30  1  0
 12 31  1  0
 12 32  1  0
 14 33  1  0
 14 34  1  0
 16 35  1  0
 17 36  1  0
 18 37  1  0
 19 38  1  0
 20 39  1  0
 21 40  1  0
 21 41  1  0
 22 42  1  0
 22 43  1  0
M  END
>  <meeko>  (1) 
{"is_sidechain": false}

>  <smiles>  (1) 
O=C(Nc1ccccc1)N1CCN(Cc2ccccc2)CC1

>  <vina_score>  (1) 
-6.985

>  <job_id>  (1) 
0448e6316fa5f9e4

$$$$
