
     RDKit          3D

 64 67  0  0  0  0  0  0  0  0999 V2000
   64.7670   83.5600   30.9640 C   0  0  0  0  0  0  0  0  0  0  0  0
   65.8510   84.9910   31.1880 S   0  0  0  0  0  4  0  0  0  0  0  0
   65.1990   85.4540   32.7790 C   0  0  0  0  0  0  0  0  0  0  0  0
   65.5840   84.7340   34.0200 C   0  0  0  0  0  0  0  0  0  0  0  0
   64.1590   86.8300   32.7550 S   0  0  0  0  0  0  0  0  0  0  0  0
   62.7910   86.1140   33.5940 C   0  0  0  0  0  0  0  0  0  0  0  0
   62.4470   86.5470   34.6880 O   0  0  0  0  0  0  0  0  0  0  0  0
   62.0620   84.9740   32.9570 C   0  0  0  0  0  0  0  0  0  0  0  0
   61.9020   83.7190   33.5550 C   0  0  0  0  0  0  0  0  0  0  0  0
   61.2110   82.6980   32.8860 C   0  0  0  0  0  0  0  0  0  0  0  0
   60.6620   82.9010   31.6110 C   0  0  0  0  0  0  0  0  0  0  0  0
   59.9380   81.8250   30.9150 C   0  0  0  0  0  0  0  0  0  0  0  0
   59.9800   81.7060   29.5200 C   0  0  0  0  0  0  0  0  0  0  0  0
   59.2880   80.6810   28.8630 C   0  0  0  0  0  0  0  0  0  0  0  0
   58.5330   79.7340   29.5710 C   0  0  0  0  0  0  0  0  0  0  0  0
   57.8600   78.7420   28.8510 N   0  0  0  0  0  0  0  0  0  0  0  0
   56.5270   78.3560   28.7470 C   0  0  0  0  0  0  0  0  0  0  0  0
   55.9350   77.5730   29.6630 N   0  0  0  0  0  0  0  0  0  0  0  0
   54.6420   77.2450   29.4590 C   0  0  0  0  0  0  0  0  0  0  0  0
   53.9170   77.6760   28.3820 C   0  0  0  0  0  0  0  0  0  0  0  0
   52.6360   77.3200   28.2260 F   0  0  0  0  0  0  0  0  0  0  0  0
   54.5890   78.4900   27.4980 C   0  0  0  0  0  0  0  0  0  0  0  0
   53.9650   79.0120   26.2840 C   0  0  0  0  0  0  0  0  0  0  0  0
   53.3390   78.3150   25.2690 C   0  0  0  0  0  0  0  0  0  0  0  0
   52.9250   79.1440   24.2710 N   0  0  0  0  0  0  0  0  0  0  0  0
   53.2710   80.3590   24.6410 C   0  0  0  0  0  0  0  0  0  0  0  0
   53.0260   81.5630   23.8070 C   0  0  0  0  0  0  0  0  0  0  0  0
   53.8650   80.3440   25.8930 N   0  0  0  0  0  0  0  0  0  0  0  0
   54.2840   81.4960   26.6940 C   0  0  0  0  0  0  0  0  0  0  0  0
   55.5600   82.1380   26.1510 C   0  0  0  0  0  0  0  0  0  0  0  0
   53.1850   82.5350   26.9300 C   0  0  0  0  0  0  0  0  0  0  0  0
   55.8880   78.8310   27.6630 N   0  0  0  0  0  0  0  0  0  0  0  0
   58.4910   79.8570   30.9610 C   0  0  0  0  0  0  0  0  0  0  0  0
   59.1810   80.8830   31.6230 C   0  0  0  0  0  0  0  0  0  0  0  0
   60.8270   84.1630   31.0200 C   0  0  0  0  0  0  0  0  0  0  0  0
   61.5180   85.1850   31.6830 C   0  0  0  0  0  0  0  0  0  0  0  0
   64.4698   83.1676   31.9477 H   0  0  0  0  0  0  0  0  0  0  0  0
   63.8701   83.8635   30.4040 H   0  0  0  0  0  0  0  0  0  0  0  0
   65.3020   82.7788   30.4040 H   0  0  0  0  0  0  0  0  0  0  0  0
   65.2020   85.8830   30.4040 H   0  0  0  0  0  0  0  0  0  0  0  0
   65.2705   85.3203   34.8963 H   0  0  0  0  0  0  0  0  0  0  0  0
   65.0913   83.7508   34.0413 H   0  0  0  0  0  0  0  0  0  0  0  0
   66.6753   84.5978   34.0413 H   0  0  0  0  0  0  0  0  0  0  0  0
   62.3204   83.5322   34.5550 H   0  0  0  0  0  0  0  0  0  0  0  0
   61.0972   81.7174   33.3713 H   0  0  0  0  0  0  0  0  0  0  0  0
   60.5651   82.4283   28.9319 H   0  0  0  0  0  0  0  0  0  0  0  0
   59.3376   80.6169   27.7660 H   0  0  0  0  0  0  0  0  0  0  0  0
   58.4300   78.0980   28.3240 H   0  0  0  0  0  0  0  0  0  0  0  0
   54.1454   76.5977   30.1968 H   0  0  0  0  0  0  0  0  0  0  0  0
   53.1929   77.2248   25.2670 H   0  0  0  0  0  0  0  0  0  0  0  0
   52.8494   82.4310   24.4592 H   0  0  0  0  0  0  0  0  0  0  0  0
   53.9037   81.7540   23.1720 H   0  0  0  0  0  0  0  0  0  0  0  0
   52.1435   81.3958   23.1720 H   0  0  0  0  0  0  0  0  0  0  0  0
   54.5086   81.0813   27.6878 H   0  0  0  0  0  0  0  0  0  0  0  0
   56.1954   82.4577   26.9901 H   0  0  0  0  0  0  0  0  0  0  0  0
   56.1052   81.4069   25.5360 H   0  0  0  0  0  0  0  0  0  0  0  0
   55.2979   83.0115   25.5360 H   0  0  0  0  0  0  0  0  0  0  0  0
   53.0379   82.6740   28.0112 H   0  0  0  0  0  0  0  0  0  0  0  0
   53.4807   83.4915   26.4742 H   0  0  0  0  0  0  0  0  0  0  0  0
   52.2466   82.1862   26.4742 H   0  0  0  0  0  0  0  0  0  0  0  0
   57.9051   79.1349   31.5487 H   0  0  0  0  0  0  0  0  0  0  0  0
   59.1266   80.9492   32.7197 H   0  0  0  0  0  0  0  0  0  0  0  0
   60.4073   84.3524   30.0210 H   0  0  0  0  0  0  0  0  0  0  0  0
   61.6351   86.1652   31.1977 H   0  0  0  0  0  0  0  0  0  0  0  0
  1  2  1  0
  2  3  2  3
  3  4  1  0
  3  5  1  0
  5  6  1  0
  6  7  2  0
  6  8  1  0
  8  9  1  0
  9 10  2  0
 10 11  1  0
 11 12  1  0
 12 13  1  0
 13 14  2  0
 14 15  1  0
 15 16  1  0
 16 17  1  0
 17 18  2  0
 18 19  1  0
 19 20  2  0
 20 21  1  0
 20 22  1  0
 22 23  1  0
 23 24  2  0
 24 25  1  0
 25 26  2  0
 26 27  1  0
 26 28  1  0
 28 29  1  0
 29 30  1  0
 29 31  1  0
 22 32  2  0
 15 33  2  0
 33 34  1  0
 11 35  2  0
 35 36  1  0
 36  8  2  0
 34 12  2  0
 32 17  1  0
 28 23  1  0
  1 37  1  0
  1 38  1  0
  1 39  1  0
  2 40  1  0
  4 41  1  0
  4 42  1  0
  4 43  1  0
  9 44  1  0
 10 45  1  0
 13 46  1  0
 14 47  1  0
 16 48  1  0
 19 49  1  0
 24 50  1  0
 27 51  1  0
 27 52  1  0
 27 53  1  0
 29 54  1  0
 30 55  1  0
 30 56  1  0
 30 57  1  0
 31 58  1  0
 31 59  1  0
 31 60  1  0
 33 61  1  0
 34 62  1  0
 35 63  1  0
 36 64  1  0
M  END
>  <meeko>  (1) 
{"is_sidechain": false}

>  <smiles>  (1) 
C[SH]=C(C)SC(=O)c1ccc(-c2ccc(Nc3ncc(F)c(-c4cnc(C)n4C(C)C)n3)cc2)cc1

>  <vina_score>  (1) 
-8.614

>  <job_id>  (1) 
046300d1bb9b0d03

$$$$
