
     RDKit          3D

 68 70  0  0  0  0  0  0  0  0999 V2000
   60.4570   80.6120   36.1450 C   0  0  0  0  0  0  0  0  0  0  0  0
   61.1000   80.7810   34.7910 C   0  0  0  0  0  0  0  0  0  0  0  0
   61.1670   79.5160   33.9770 C   0  0  0  0  0  0  0  0  0  0  0  0
   61.5510   81.9860   34.3920 C   0  0  0  0  0  0  0  0  0  0  0  0
   62.2110   82.2980   33.0890 N   0  0  0  0  0  0  0  0  0  0  0  0
   63.2610   81.5990   32.8010 C   0  0  0  0  0  0  0  0  0  0  0  0
   64.1160   81.7960   31.6120 C   0  0  0  0  0  0  0  0  0  0  0  0
   65.3260   82.3420   31.7960 C   0  0  0  0  0  0  0  0  0  0  0  0
   66.2740   82.5010   30.6750 C   0  0  0  0  0  0  0  0  0  0  0  0
   66.5360   83.7760   30.2900 N   0  0  0  0  0  0  0  0  0  0  0  0
   66.8100   81.5300   30.1680 O   0  0  0  0  0  0  0  0  0  0  0  0
   61.6160   83.4400   32.3370 C   0  0  0  0  0  0  0  0  0  0  0  0
   60.1140   83.2470   32.2540 C   0  0  0  0  0  0  0  0  0  0  0  0
   59.3400   83.9600   32.8910 O   0  0  0  0  0  0  0  0  0  0  0  0
   59.5780   82.1720   31.3690 C   0  0  0  0  0  0  0  0  0  0  0  0
   59.8650   82.1090   30.0040 C   0  0  0  0  0  0  0  0  0  0  0  0
   59.3370   81.0730   29.2200 C   0  0  0  0  0  0  0  0  0  0  0  0
   58.5220   80.0780   29.7700 C   0  0  0  0  0  0  0  0  0  0  0  0
   57.9600   79.0330   29.0330 N   0  0  0  0  0  0  0  0  0  0  0  0
   56.6610   78.5640   28.8530 C   0  0  0  0  0  0  0  0  0  0  0  0
   56.0620   77.7650   29.7510 N   0  0  0  0  0  0  0  0  0  0  0  0
   54.7930   77.3840   29.4890 C   0  0  0  0  0  0  0  0  0  0  0  0
   54.1050   77.7690   28.3690 C   0  0  0  0  0  0  0  0  0  0  0  0
   52.8450   77.3690   28.1650 F   0  0  0  0  0  0  0  0  0  0  0  0
   54.7960   78.5740   27.4930 C   0  0  0  0  0  0  0  0  0  0  0  0
   54.1890   79.1070   26.2770 C   0  0  0  0  0  0  0  0  0  0  0  0
   53.6760   78.4150   25.1960 C   0  0  0  0  0  0  0  0  0  0  0  0
   53.1410   79.2570   24.2700 N   0  0  0  0  0  0  0  0  0  0  0  0
   53.3170   80.4750   24.7380 C   0  0  0  0  0  0  0  0  0  0  0  0
   52.8480   81.6930   24.0290 C   0  0  0  0  0  0  0  0  0  0  0  0
   54.0000   80.4450   25.9440 N   0  0  0  0  0  0  0  0  0  0  0  0
   54.4790   81.5870   26.7230 C   0  0  0  0  0  0  0  0  0  0  0  0
   55.5790   82.4040   26.0380 C   0  0  0  0  0  0  0  0  0  0  0  0
   53.3330   82.4760   27.2040 C   0  0  0  0  0  0  0  0  0  0  0  0
   56.0680   78.9790   27.7210 N   0  0  0  0  0  0  0  0  0  0  0  0
   58.2320   80.1660   31.1400 C   0  0  0  0  0  0  0  0  0  0  0  0
   58.7520   81.1950   31.9340 C   0  0  0  0  0  0  0  0  0  0  0  0
   61.2010   80.8076   36.9312 H   0  0  0  0  0  0  0  0  0  0  0  0
   59.6222   81.3212   36.2456 H   0  0  0  0  0  0  0  0  0  0  0  0
   60.0788   79.5840   36.2456 H   0  0  0  0  0  0  0  0  0  0  0  0
   61.2130   78.6481   34.6513 H   0  0  0  0  0  0  0  0  0  0  0  0
   60.2716   79.4404   33.3425 H   0  0  0  0  0  0  0  0  0  0  0  0
   62.0654   79.5354   33.3425 H   0  0  0  0  0  0  0  0  0  0  0  0
   61.4204   82.8222   35.0947 H   0  0  0  0  0  0  0  0  0  0  0  0
   63.5394   80.7938   33.4968 H   0  0  0  0  0  0  0  0  0  0  0  0
   63.7708   81.5042   30.6092 H   0  0  0  0  0  0  0  0  0  0  0  0
   65.6187   82.6783   32.8016 H   0  0  0  0  0  0  0  0  0  0  0  0
   66.3390   84.5760   30.8740 H   0  0  0  0  0  0  0  0  0  0  0  0
   67.2850   83.8840   29.6130 H   0  0  0  0  0  0  0  0  0  0  0  0
   61.8385   84.3819   32.8598 H   0  0  0  0  0  0  0  0  0  0  0  0
   62.0422   83.4804   31.3237 H   0  0  0  0  0  0  0  0  0  0  0  0
   60.5068   82.8739   29.5424 H   0  0  0  0  0  0  0  0  0  0  0  0
   59.5696   81.0420   28.1453 H   0  0  0  0  0  0  0  0  0  0  0  0
   58.5660   78.5480   28.3850 H   0  0  0  0  0  0  0  0  0  0  0  0
   54.2853   76.7301   30.2133 H   0  0  0  0  0  0  0  0  0  0  0  0
   53.6974   77.3197   25.0964 H   0  0  0  0  0  0  0  0  0  0  0  0
   52.5543   82.4557   24.7653 H   0  0  0  0  0  0  0  0  0  0  0  0
   53.6593   82.0854   23.3983 H   0  0  0  0  0  0  0  0  0  0  0  0
   51.9830   81.4400   23.3983 H   0  0  0  0  0  0  0  0  0  0  0  0
   54.9572   81.1417   27.6079 H   0  0  0  0  0  0  0  0  0  0  0  0
   56.2146   82.8761   26.8017 H   0  0  0  0  0  0  0  0  0  0  0  0
   56.1917   81.7403   25.4102 H   0  0  0  0  0  0  0  0  0  0  0  0
   55.1206   83.1823   25.4102 H   0  0  0  0  0  0  0  0  0  0  0  0
   53.3160   82.4892   28.3038 H   0  0  0  0  0  0  0  0  0  0  0  0
   53.4795   83.4990   26.8272 H   0  0  0  0  0  0  0  0  0  0  0  0
   52.3785   82.0797   26.8272 H   0  0  0  0  0  0  0  0  0  0  0  0
   57.5808   79.4087   31.6009 H   0  0  0  0  0  0  0  0  0  0  0  0
   58.5100   81.2353   33.0063 H   0  0  0  0  0  0  0  0  0  0  0  0
  1  2  1  0
  2  3  1  0
  2  4  2  3
  4  5  1  0
  5  6  2  3
  6  7  1  0
  7  8  2  3
  8  9  1  0
  9 10  1  0
  9 11  2  0
  5 12  1  0
 12 13  1  0
 13 14  2  0
 13 15  1  0
 15 16  1  0
 16 17  2  0
 17 18  1  0
 18 19  1  0
 19 20  1  0
 20 21  2  0
 21 22  1  0
 22 23  2  0
 23 24  1  0
 23 25  1  0
 25 26  1  0
 26 27  2  0
 27 28  1  0
 28 29  2  0
 29 30  1  0
 29 31  1  0
 31 32  1  0
 32 33  1  0
 32 34  1  0
 25 35  2  0
 18 36  2  0
 36 37  1  0
 37 15  2  0
 35 20  1  0
 31 26  1  0
  1 38  1  0
  1 39  1  0
  1 40  1  0
  3 41  1  0
  3 42  1  0
  3 43  1  0
  4 44  1  0
  6 45  1  0
  7 46  1  0
  8 47  1  0
 10 48  1  0
 10 49  1  0
 12 50  1  0
 12 51  1  0
 16 52  1  0
 17 53  1  0
 19 54  1  0
 22 55  1  0
 27 56  1  0
 30 57  1  0
 30 58  1  0
 30 59  1  0
 32 60  1  0
 33 61  1  0
 33 62  1  0
 33 63  1  0
 34 64  1  0
 34 65  1  0
 34 66  1  0
 36 67  1  0
 37 68  1  0
M  CHG  1   5   1
M  END
>  <meeko>  (1) 
{"is_sidechain": false}

>  <smiles>  (1) 
CC(C)=C[N+](=CC=CC(N)=O)CC(=O)c1ccc(Nc2ncc(F)c(-c3cnc(C)n3C(C)C)n2)cc1

>  <vina_score>  (1) 
-9.004

>  <job_id>  (1) 
0477cd210db606f7

$$$$
