
     RDKit          3D

 36 37  0  0  0  0  0  0  0  0999 V2000
   52.9370   76.9940   27.1190 C   0  0  0  0  0  0  0  0  0  0  0  0
   53.2110   78.5010   27.2190 C   0  0  1  0  0  0  0  0  0  0  0  0
   54.6120   78.7390   27.7740 C   0  0  0  0  0  0  0  0  0  0  0  0
   55.0710   78.0640   28.9150 C   0  0  0  0  0  0  0  0  0  0  0  0
   56.3570   78.2950   29.4110 C   0  0  0  0  0  0  0  0  0  0  0  0
   57.2140   79.2030   28.7760 C   0  0  0  0  0  0  0  0  0  0  0  0
   58.5870   79.4780   29.3320 C   0  0  0  0  0  0  0  0  0  0  0  0
   58.5730   79.8150   30.6520 F   0  0  0  0  0  0  0  0  0  0  0  0
   59.2270   80.5000   28.6970 F   0  0  0  0  0  0  0  0  0  0  0  0
   56.7540   79.8870   27.6430 C   0  0  0  0  0  0  0  0  0  0  0  0
   55.4690   79.6550   27.1450 C   0  0  0  0  0  0  0  0  0  0  0  0
   52.9450   79.2990   25.9430 C   0  0  0  0  0  0  0  0  0  0  0  0
   53.1890   78.7900   24.6560 C   0  0  0  0  0  0  0  0  0  0  0  0
   52.9370   79.5640   23.5200 C   0  0  0  0  0  0  0  0  0  0  0  0
   52.4500   80.8640   23.6630 C   0  0  0  0  0  0  0  0  0  0  0  0
   52.1020   81.8340   22.2270 S   0  0  0  0  0  0  0  0  0  0  0  0
   50.5250   81.3820   21.8740 N   0  0  0  0  0  0  0  0  0  0  0  0
   52.9070   81.3600   21.1250 O   0  0  0  0  0  0  0  0  0  0  0  0
   52.0400   83.2290   22.5950 O   0  0  0  0  0  0  0  0  0  0  0  0
   52.1930   81.3900   24.9290 C   0  0  0  0  0  0  0  0  0  0  0  0
   52.4460   80.6100   26.0590 C   0  0  0  0  0  0  0  0  0  0  0  0
   52.8595   76.5675   28.1300 H   0  0  0  0  0  0  0  0  0  0  0  0
   51.9939   76.8279   26.5777 H   0  0  0  0  0  0  0  0  0  0  0  0
   53.7612   76.5066   26.5777 H   0  0  0  0  0  0  0  0  0  0  0  0
   52.4671   78.9002   27.9241 H   0  0  0  0  0  0  0  0  0  0  0  0
   54.4120   77.3456   29.4245 H   0  0  0  0  0  0  0  0  0  0  0  0
   56.6994   77.7588   30.3084 H   0  0  0  0  0  0  0  0  0  0  0  0
   59.1152   78.5259   29.1755 H   0  0  0  0  0  0  0  0  0  0  0  0
   57.4102   80.6132   27.1409 H   0  0  0  0  0  0  0  0  0  0  0  0
   55.1258   80.1960   26.2508 H   0  0  0  0  0  0  0  0  0  0  0  0
   53.5833   77.7695   24.5413 H   0  0  0  0  0  0  0  0  0  0  0  0
   53.1217   79.1504   22.5176 H   0  0  0  0  0  0  0  0  0  0  0  0
   50.2100   81.8500   21.0230 H   0  0  0  0  0  0  0  0  0  0  0  0
   49.9260   81.5490   22.6830 H   0  0  0  0  0  0  0  0  0  0  0  0
   51.7947   82.4098   25.0361 H   0  0  0  0  0  0  0  0  0  0  0  0
   52.2519   81.0276   27.0580 H   0  0  0  0  0  0  0  0  0  0  0  0
  1  2  1  0
  2  3  1  0
  3  4  1  0
  4  5  2  0
  5  6  1  0
  6  7  1  0
  7  8  1  0
  7  9  1  0
  6 10  2  0
 10 11  1  0
  2 12  1  0
 12 13  1  0
 13 14  2  0
 14 15  1  0
 15 16  1  0
 16 17  1  0
 16 18  2  0
 16 19  2  0
 15 20  2  0
 20 21  1  0
 11  3  2  0
 21 12  2  0
  1 22  1  0
  1 23  1  0
  1 24  1  0
  2 25  1  1
  4 26  1  0
  5 27  1  0
  7 28  1  0
 10 29  1  0
 11 30  1  0
 13 31  1  0
 14 32  1  0
 17 33  1  0
 17 34  1  0
 20 35  1  0
 21 36  1  0
M  END
>  <meeko>  (1) 
{"is_sidechain": false}

>  <smiles>  (1) 
C[C@@H](c1ccc(C(F)F)cc1)c1ccc(S(N)(=O)=O)cc1

>  <vina_score>  (1) 
-8.729

>  <job_id>  (1) 
0504c80476727ca3

$$$$
