
     RDKit          3D

 46 48  0  0  0  0  0  0  0  0999 V2000
   58.6490   80.3040   30.4810 C   0  0  0  0  0  0  0  0  0  0  0  0
   58.5620   79.7300   29.0750 C   0  0  0  0  0  0  0  0  0  0  0  0
   57.2310   79.0720   28.8270 C   0  0  0  0  0  0  0  0  0  0  0  0
   56.8720   77.9270   29.5120 C   0  0  0  0  0  0  0  0  0  0  0  0
   55.6420   77.3810   29.2050 C   0  0  0  0  0  0  0  0  0  0  0  0
   55.1710   76.1400   29.9000 C   0  0  0  0  0  0  0  0  0  0  0  0
   54.8220   77.9220   28.2820 N   0  0  0  0  0  0  0  0  0  0  0  0
   55.2500   79.0360   27.6550 C   0  0  0  0  0  0  0  0  0  0  0  0
   54.3650   79.6400   26.6380 C   0  0  0  0  0  0  0  0  0  0  0  0
   53.7960   80.9100   26.8140 C   0  0  0  0  0  0  0  0  0  0  0  0
   52.9570   81.4820   25.8430 C   0  0  0  0  0  0  0  0  0  0  0  0
   52.6400   80.8270   24.6460 C   0  0  0  0  0  0  0  0  0  0  0  0
   51.7980   81.3990   23.6970 N   0  0  0  0  0  0  0  0  0  0  0  0
   52.3340   82.3280   22.7000 C   0  0  0  0  0  0  0  0  0  0  0  0
   52.5030   81.7330   21.3020 C   0  0  0  0  0  0  0  0  0  0  0  0
   51.2560   81.0300   20.7670 C   0  0  0  0  0  0  0  0  0  0  0  0
   50.0150   81.5310   21.3640 N   0  0  0  0  0  0  0  0  0  0  0  0
   49.6490   80.8340   22.6080 C   0  0  0  0  0  0  0  0  0  0  0  0
   50.3410   81.3430   23.8770 C   0  0  0  0  0  0  0  0  0  0  0  0
   53.2030   79.5530   24.4800 C   0  0  0  0  0  0  0  0  0  0  0  0
   54.0460   78.9760   25.4460 C   0  0  0  0  0  0  0  0  0  0  0  0
   56.4350   79.6330   27.8950 N   0  0  0  0  0  0  0  0  0  0  0  0
   58.5263   79.4946   31.2157 H   0  0  0  0  0  0  0  0  0  0  0  0
   59.6298   80.7817   30.6220 H   0  0  0  0  0  0  0  0  0  0  0  0
   57.8538   81.0508   30.6220 H   0  0  0  0  0  0  0  0  0  0  0  0
   58.6989   80.5440   28.3479 H   0  0  0  0  0  0  0  0  0  0  0  0
   59.3483   78.9687   28.9647 H   0  0  0  0  0  0  0  0  0  0  0  0
   57.5335   77.4731   30.2646 H   0  0  0  0  0  0  0  0  0  0  0  0
   55.2264   76.2861   30.9888 H   0  0  0  0  0  0  0  0  0  0  0  0
   54.1307   75.9301   29.6107 H   0  0  0  0  0  0  0  0  0  0  0  0
   55.8101   75.2927   29.6107 H   0  0  0  0  0  0  0  0  0  0  0  0
   54.0120   81.4718   27.7347 H   0  0  0  0  0  0  0  0  0  0  0  0
   52.5338   82.4801   26.0294 H   0  0  0  0  0  0  0  0  0  0  0  0
   51.6494   83.1859   22.6273 H   0  0  0  0  0  0  0  0  0  0  0  0
   53.3408   82.6075   23.0437 H   0  0  0  0  0  0  0  0  0  0  0  0
   52.7643   82.5469   20.6097 H   0  0  0  0  0  0  0  0  0  0  0  0
   53.2903   80.9684   21.3763 H   0  0  0  0  0  0  0  0  0  0  0  0
   51.2077   81.1822   19.6787 H   0  0  0  0  0  0  0  0  0  0  0  0
   51.3407   79.9652   21.0297 H   0  0  0  0  0  0  0  0  0  0  0  0
   49.2570   81.3980   20.6950 H   0  0  0  0  0  0  0  0  0  0  0  0
   48.5631   80.9392   22.7486 H   0  0  0  0  0  0  0  0  0  0  0  0
   49.9805   79.7930   22.4799 H   0  0  0  0  0  0  0  0  0  0  0  0
   49.9685   82.3515   24.1098 H   0  0  0  0  0  0  0  0  0  0  0  0
   50.1165   80.6491   24.7004 H   0  0  0  0  0  0  0  0  0  0  0  0
   52.9776   78.9869   23.5642 H   0  0  0  0  0  0  0  0  0  0  0  0
   54.4664   77.9765   25.2611 H   0  0  0  0  0  0  0  0  0  0  0  0
  1  2  1  0
  2  3  1  0
  3  4  1  0
  4  5  2  0
  5  6  1  0
  5  7  1  0
  7  8  2  0
  8  9  1  0
  9 10  1  0
 10 11  2  0
 11 12  1  0
 12 13  1  0
 13 14  1  0
 14 15  1  0
 15 16  1  0
 16 17  1  0
 17 18  1  0
 18 19  1  0
 12 20  2  0
 20 21  1  0
  8 22  1  0
 22  3  2  0
 21  9  2  0
 19 13  1  0
  1 23  1  0
  1 24  1  0
  1 25  1  0
  2 26  1  0
  2 27  1  0
  4 28  1  0
  6 29  1  0
  6 30  1  0
  6 31  1  0
 10 32  1  0
 11 33  1  0
 14 34  1  0
 14 35  1  0
 15 36  1  0
 15 37  1  0
 16 38  1  0
 16 39  1  0
 17 40  1  0
 18 41  1  0
 18 42  1  0
 19 43  1  0
 19 44  1  0
 20 45  1  0
 21 46  1  0
M  END
>  <meeko>  (1) 
{"is_sidechain": false}

>  <smiles>  (1) 
CCc1cc(C)nc(-c2ccc(N3CCCNCC3)cc2)n1

>  <vina_score>  (1) 
-5.345

>  <job_id>  (1) 
052bb599383912e2

$$$$
