
     RDKit          3D

 44 46  0  0  0  0  0  0  0  0999 V2000
   52.8860   81.2000   23.8550 C   0  0  0  0  0  0  0  0  0  0  0  0
   53.2570   80.0940   24.7750 C   0  0  0  0  0  0  0  0  0  0  0  0
   52.9350   78.8390   24.5470 N   0  0  0  0  0  0  0  0  0  0  0  0
   53.4640   78.1280   25.5780 C   0  0  0  0  0  0  0  0  0  0  0  0
   54.1300   78.9360   26.4830 C   0  0  0  0  0  0  0  0  0  0  0  0
   54.8570   78.5270   27.6910 C   0  0  0  0  0  0  0  0  0  0  0  0
   56.0590   79.1130   27.8870 N   0  0  0  0  0  0  0  0  0  0  0  0
   56.7670   78.7370   28.9600 C   0  0  0  0  0  0  0  0  0  0  0  0
   58.0060   79.2840   29.2470 N   0  0  0  0  0  0  0  0  0  0  0  0
   58.3070   80.0370   30.3550 C   0  0  0  0  0  0  0  0  0  0  0  0
   57.5690   80.2320   31.3120 O   0  0  0  0  0  0  0  0  0  0  0  0
   59.6230   80.5120   30.2700 N   0  0  0  0  0  0  0  0  0  0  0  0
   60.0880   81.4220   31.2470 N   0  0  0  0  0  0  0  0  0  0  0  0
   59.3980   82.7380   31.1230 C   0  0  0  0  0  0  0  0  0  0  0  0
   60.7580   83.4040   31.3920 C   0  0  0  0  0  0  0  0  0  0  0  0
   61.3430   82.1070   30.8070 C   0  0  0  0  0  0  0  0  0  0  0  0
   56.3860   77.7830   29.8260 N   0  0  0  0  0  0  0  0  0  0  0  0
   55.1830   77.2180   29.6000 C   0  0  0  0  0  0  0  0  0  0  0  0
   54.3730   77.5560   28.5470 C   0  0  0  0  0  0  0  0  0  0  0  0
   53.1880   76.9530   28.3830 F   0  0  0  0  0  0  0  0  0  0  0  0
   53.9560   80.2220   25.9680 N   0  0  0  0  0  0  0  0  0  0  0  0
   54.4210   81.4700   26.5800 C   0  0  0  0  0  0  0  0  0  0  0  0
   53.3100   82.4790   26.8870 C   0  0  0  0  0  0  0  0  0  0  0  0
   55.5510   82.1070   25.7710 C   0  0  0  0  0  0  0  0  0  0  0  0
   52.5902   82.0818   24.4423 H   0  0  0  0  0  0  0  0  0  0  0  0
   53.7481   81.4542   23.2208 H   0  0  0  0  0  0  0  0  0  0  0  0
   52.0450   80.8829   23.2208 H   0  0  0  0  0  0  0  0  0  0  0  0
   53.3732   77.0366   25.6810 H   0  0  0  0  0  0  0  0  0  0  0  0
   58.7590   78.8470   28.7430 H   0  0  0  0  0  0  0  0  0  0  0  0
   59.9100   80.7290   29.3200 H   0  0  0  0  0  0  0  0  0  0  0  0
   58.9764   82.9425   30.1278 H   0  0  0  0  0  0  0  0  0  0  0  0
   58.5073   82.9817   31.7207 H   0  0  0  0  0  0  0  0  0  0  0  0
   60.9587   84.3150   30.8090 H   0  0  0  0  0  0  0  0  0  0  0  0
   61.0485   83.8088   32.3727 H   0  0  0  0  0  0  0  0  0  0  0  0
   61.4991   82.1240   29.7183 H   0  0  0  0  0  0  0  0  0  0  0  0
   62.3372   81.7372   31.0981 H   0  0  0  0  0  0  0  0  0  0  0  0
   54.8324   76.4438   30.2984 H   0  0  0  0  0  0  0  0  0  0  0  0
   54.8201   81.1755   27.5618 H   0  0  0  0  0  0  0  0  0  0  0  0
   53.1979   82.5808   27.9765 H   0  0  0  0  0  0  0  0  0  0  0  0
   53.5710   83.4552   26.4525 H   0  0  0  0  0  0  0  0  0  0  0  0
   52.3633   82.1255   26.4525 H   0  0  0  0  0  0  0  0  0  0  0  0
   56.3001   82.5293   26.4569 H   0  0  0  0  0  0  0  0  0  0  0  0
   56.0240   81.3426   25.1370 H   0  0  0  0  0  0  0  0  0  0  0  0
   55.1419   82.9074   25.1370 H   0  0  0  0  0  0  0  0  0  0  0  0
  1  2  1  0
  2  3  2  0
  3  4  1  0
  4  5  2  0
  5  6  1  0
  6  7  2  0
  7  8  1  0
  8  9  1  0
  9 10  1  0
 10 11  2  0
 10 12  1  0
 12 13  1  0
 13 14  1  0
 14 15  1  0
 15 16  1  0
  8 17  2  0
 17 18  1  0
 18 19  2  0
 19 20  1  0
  5 21  1  0
 21 22  1  0
 22 23  1  0
 22 24  1  0
 21  2  1  0
 19  6  1  0
 16 13  1  0
  1 25  1  0
  1 26  1  0
  1 27  1  0
  4 28  1  0
  9 29  1  0
 12 30  1  0
 14 31  1  0
 14 32  1  0
 15 33  1  0
 15 34  1  0
 16 35  1  0
 16 36  1  0
 18 37  1  0
 22 38  1  0
 23 39  1  0
 23 40  1  0
 23 41  1  0
 24 42  1  0
 24 43  1  0
 24 44  1  0
M  END
>  <meeko>  (1) 
{"is_sidechain": false}

>  <smiles>  (1) 
Cc1ncc(-c2nc(NC(=O)NN3CCC3)ncc2F)n1C(C)C

>  <vina_score>  (1) 
-7.908

>  <job_id>  (1) 
056213dc0bd1de8c

$$$$
