
     RDKit          3D

 39 40  0  0  0  0  0  0  0  0999 V2000
   58.5600   80.2340   31.1020 C   0  0  0  0  0  0  0  0  0  0  0  0
   58.4110   79.8220   29.6460 C   0  0  0  0  0  0  0  0  0  0  0  0
   57.2840   78.8010   29.4690 C   0  0  0  0  0  0  0  0  0  0  0  0
   56.3400   79.1960   28.3550 C   0  0  0  0  0  0  0  0  0  0  0  0
   56.7530   80.1830   27.4470 C   0  0  0  0  0  0  0  0  0  0  0  0
   55.9280   80.5830   26.3920 C   0  0  0  0  0  0  0  0  0  0  0  0
   54.6650   80.0060   26.2080 C   0  0  0  0  0  0  0  0  0  0  0  0
   53.7930   80.4250   25.1000 C   0  0  0  0  0  0  0  0  0  0  0  0
   53.3100   79.4910   24.1660 C   0  0  0  0  0  0  0  0  0  0  0  0
   52.4830   79.8830   23.1110 C   0  0  0  0  0  0  0  0  0  0  0  0
   52.1230   81.2270   22.9860 C   0  0  0  0  0  0  0  0  0  0  0  0
   51.0770   81.7240   21.6440 S   0  0  0  0  0  0  0  0  0  0  0  0
   49.5510   81.3560   22.2550 N   0  0  0  0  0  0  0  0  0  0  0  0
   51.3280   80.8560   20.5190 O   0  0  0  0  0  0  0  0  0  0  0  0
   51.1150   83.1650   21.5400 O   0  0  0  0  0  0  0  0  0  0  0  0
   52.5960   82.1780   23.8890 C   0  0  0  0  0  0  0  0  0  0  0  0
   53.4230   81.7730   24.9410 C   0  0  0  0  0  0  0  0  0  0  0  0
   54.2590   79.0140   27.1160 C   0  0  0  0  0  0  0  0  0  0  0  0
   55.0790   78.5940   28.1800 C   0  0  0  0  0  0  0  0  0  0  0  0
   54.5640   77.5370   29.1180 C   0  0  0  0  0  0  0  0  0  0  0  0
   58.2582   79.3994   31.7519 H   0  0  0  0  0  0  0  0  0  0  0  0
   59.6094   80.4949   31.3037 H   0  0  0  0  0  0  0  0  0  0  0  0
   57.9202   81.1058   31.3037 H   0  0  0  0  0  0  0  0  0  0  0  0
   58.1847   80.7136   29.0427 H   0  0  0  0  0  0  0  0  0  0  0  0
   59.3534   79.3590   29.3181 H   0  0  0  0  0  0  0  0  0  0  0  0
   57.7246   77.8214   29.2321 H   0  0  0  0  0  0  0  0  0  0  0  0
   56.7095   78.7591   30.4061 H   0  0  0  0  0  0  0  0  0  0  0  0
   57.7419   80.6494   27.5675 H   0  0  0  0  0  0  0  0  0  0  0  0
   56.2753   81.3615   25.6968 H   0  0  0  0  0  0  0  0  0  0  0  0
   53.5888   78.4319   24.2683 H   0  0  0  0  0  0  0  0  0  0  0  0
   52.1187   79.1407   22.3856 H   0  0  0  0  0  0  0  0  0  0  0  0
   49.1880   80.5380   21.7640 H   0  0  0  0  0  0  0  0  0  0  0  0
   48.9020   82.1430   22.2170 H   0  0  0  0  0  0  0  0  0  0  0  0
   52.3211   83.2370   23.7749 H   0  0  0  0  0  0  0  0  0  0  0  0
   53.7911   82.5221   25.6575 H   0  0  0  0  0  0  0  0  0  0  0  0
   53.2690   78.5509   26.9915 H   0  0  0  0  0  0  0  0  0  0  0  0
   54.7217   77.8608   30.1574 H   0  0  0  0  0  0  0  0  0  0  0  0
   53.4894   77.3820   28.9413 H   0  0  0  0  0  0  0  0  0  0  0  0
   55.1042   76.5952   28.9413 H   0  0  0  0  0  0  0  0  0  0  0  0
  1  2  1  0
  2  3  1  0
  3  4  1  0
  4  5  1  0
  5  6  2  0
  6  7  1  0
  7  8  1  0
  8  9  1  0
  9 10  2  0
 10 11  1  0
 11 12  1  0
 12 13  1  0
 12 14  2  0
 12 15  2  0
 11 16  2  0
 16 17  1  0
  7 18  2  0
 18 19  1  0
 19 20  1  0
 19  4  2  0
 17  8  2  0
  1 21  1  0
  1 22  1  0
  1 23  1  0
  2 24  1  0
  2 25  1  0
  3 26  1  0
  3 27  1  0
  5 28  1  0
  6 29  1  0
  9 30  1  0
 10 31  1  0
 13 32  1  0
 13 33  1  0
 16 34  1  0
 17 35  1  0
 18 36  1  0
 20 37  1  0
 20 38  1  0
 20 39  1  0
M  END
>  <meeko>  (1) 
{"is_sidechain": false}

>  <smiles>  (1) 
CCCc1ccc(-c2ccc(S(N)(=O)=O)cc2)cc1C

>  <vina_score>  (1) 
-8.613

>  <job_id>  (1) 
05716048277a9669

$$$$
