
     RDKit          3D

 37 38  0  0  0  0  0  0  0  0999 V2000
   55.5610   82.9750   26.1460 C   0  0  0  0  0  0  0  0  0  0  0  0
   54.9810   81.6650   25.8500 N   0  0  0  0  0  0  0  0  0  0  0  0
   53.7130   81.6870   25.1220 C   0  0  0  0  0  0  0  0  0  0  0  0
   55.2660   80.5890   26.7010 C   0  0  0  0  0  0  0  0  0  0  0  0
   54.2820   79.6690   27.1000 C   0  0  0  0  0  0  0  0  0  0  0  0
   54.5760   78.5880   27.9360 C   0  0  0  0  0  0  0  0  0  0  0  0
   53.3220   77.5000   28.3970 Cl  0  0  0  0  0  0  0  0  0  0  0  0
   55.8690   78.3770   28.3980 C   0  0  0  0  0  0  0  0  0  0  0  0
   56.8860   79.2540   28.0160 C   0  0  0  0  0  0  0  0  0  0  0  0
   58.3040   79.0410   28.4960 C   0  0  0  0  0  0  0  0  0  0  0  0
   58.7240   79.9840   29.6010 C   0  0  0  0  0  0  0  0  0  0  0  0
   59.6570   81.0030   29.3540 C   0  0  0  0  0  0  0  0  0  0  0  0
   60.0440   81.8780   30.3740 C   0  0  0  0  0  0  0  0  0  0  0  0
   59.5100   81.7380   31.6590 C   0  0  0  0  0  0  0  0  0  0  0  0
   59.8870   82.6410   32.7800 C   0  0  0  0  0  0  0  0  0  0  0  0
   59.3120   82.4110   33.9990 N   0  0  0  0  0  0  0  0  0  0  0  0
   60.6550   83.5810   32.6200 O   0  0  0  0  0  0  0  0  0  0  0  0
   58.5690   80.7310   31.9080 C   0  0  0  0  0  0  0  0  0  0  0  0
   58.1820   79.8580   30.8880 C   0  0  0  0  0  0  0  0  0  0  0  0
   56.5700   80.3390   27.1730 C   0  0  0  0  0  0  0  0  0  0  0  0
   55.6214   83.1115   27.2358 H   0  0  0  0  0  0  0  0  0  0  0  0
   56.5701   83.0357   25.7124 H   0  0  0  0  0  0  0  0  0  0  0  0
   54.9276   83.7629   25.7124 H   0  0  0  0  0  0  0  0  0  0  0  0
   52.8788   81.7015   25.8389 H   0  0  0  0  0  0  0  0  0  0  0  0
   53.6687   82.5860   24.4897 H   0  0  0  0  0  0  0  0  0  0  0  0
   53.6376   80.7900   24.4897 H   0  0  0  0  0  0  0  0  0  0  0  0
   53.2499   79.8033   26.7441 H   0  0  0  0  0  0  0  0  0  0  0  0
   56.0897   77.5261   29.0592 H   0  0  0  0  0  0  0  0  0  0  0  0
   58.3926   78.0097   28.8682 H   0  0  0  0  0  0  0  0  0  0  0  0
   58.9647   79.2384   27.6389 H   0  0  0  0  0  0  0  0  0  0  0  0
   60.0881   81.1145   28.3482 H   0  0  0  0  0  0  0  0  0  0  0  0
   60.7697   82.6778   30.1652 H   0  0  0  0  0  0  0  0  0  0  0  0
   58.4780   81.8510   34.1010 H   0  0  0  0  0  0  0  0  0  0  0  0
   59.4860   83.1160   34.7030 H   0  0  0  0  0  0  0  0  0  0  0  0
   58.1322   80.6268   32.9122 H   0  0  0  0  0  0  0  0  0  0  0  0
   57.4471   79.0664   31.0961 H   0  0  0  0  0  0  0  0  0  0  0  0
   57.3779   81.0212   26.8700 H   0  0  0  0  0  0  0  0  0  0  0  0
  1  2  1  0
  2  3  1  0
  2  4  1  0
  4  5  1  0
  5  6  2  0
  6  7  1  0
  6  8  1  0
  8  9  2  0
  9 10  1  0
 10 11  1  0
 11 12  1  0
 12 13  2  0
 13 14  1  0
 14 15  1  0
 15 16  1  0
 15 17  2  0
 14 18  2  0
 18 19  1  0
  9 20  1  0
 20  4  2  0
 19 11  2  0
  1 21  1  0
  1 22  1  0
  1 23  1  0
  3 24  1  0
  3 25  1  0
  3 26  1  0
  5 27  1  0
  8 28  1  0
 10 29  1  0
 10 30  1  0
 12 31  1  0
 13 32  1  0
 16 33  1  0
 16 34  1  0
 18 35  1  0
 19 36  1  0
 20 37  1  0
M  END
>  <meeko>  (1) 
{"is_sidechain": false}

>  <smiles>  (1) 
CN(C)c1cc(Cl)cc(Cc2ccc(C(N)=O)cc2)c1

>  <vina_score>  (1) 
-7.737

>  <job_id>  (1) 
059c334e1099d547

$$$$
