
     RDKit          3D

 40 41  0  0  0  0  0  0  0  0999 V2000
   64.4160   83.6210   32.8600 C   0  0  0  0  0  0  0  0  0  0  0  0
   63.3740   82.8890   32.1610 N   0  0  0  0  0  0  0  0  0  0  0  0
   63.8100   82.0920   31.0230 C   0  0  0  0  0  0  0  0  0  0  0  0
   62.0480   83.2390   32.4160 C   0  0  0  0  0  0  0  0  0  0  0  0
   61.7200   84.1810   33.1330 O   0  0  0  0  0  0  0  0  0  0  0  0
   60.9650   82.4250   31.8190 C   0  0  0  0  0  0  0  0  0  0  0  0
   60.4210   81.3430   32.5150 C   0  0  0  0  0  0  0  0  0  0  0  0
   59.3780   80.6070   31.9450 C   0  0  0  0  0  0  0  0  0  0  0  0
   58.8620   80.9510   30.6860 C   0  0  0  0  0  0  0  0  0  0  0  0
   57.8150   80.1520   30.1820 N   0  0  0  0  0  0  0  0  0  0  0  0
   57.7470   79.5440   28.9420 C   0  0  0  0  0  0  0  0  0  0  0  0
   58.5600   79.6290   28.0300 O   0  0  0  0  0  0  0  0  0  0  0  0
   56.5180   78.7320   28.7070 C   0  0  0  0  0  0  0  0  0  0  0  0
   56.3210   77.5820   29.4810 C   0  0  0  0  0  0  0  0  0  0  0  0
   55.1820   76.7920   29.2970 C   0  0  0  0  0  0  0  0  0  0  0  0
   54.2220   77.1600   28.3470 C   0  0  0  0  0  0  0  0  0  0  0  0
   52.9940   76.3560   28.1050 C   0  0  0  0  0  0  0  0  0  0  0  0
   53.1320   74.9990   28.0200 N   0  0  0  0  0  0  0  0  0  0  0  0
   51.8920   76.8830   28.0180 O   0  0  0  0  0  0  0  0  0  0  0  0
   54.4190   78.3150   27.5760 C   0  0  0  0  0  0  0  0  0  0  0  0
   55.5570   79.1060   27.7600 C   0  0  0  0  0  0  0  0  0  0  0  0
   59.4030   82.0490   30.0090 C   0  0  0  0  0  0  0  0  0  0  0  0
   60.4440   82.7920   30.5770 C   0  0  0  0  0  0  0  0  0  0  0  0
   64.2707   83.5189   33.9456 H   0  0  0  0  0  0  0  0  0  0  0  0
   65.3995   83.2143   32.5819 H   0  0  0  0  0  0  0  0  0  0  0  0
   64.3669   84.6841   32.5819 H   0  0  0  0  0  0  0  0  0  0  0  0
   64.3088   81.1803   31.3835 H   0  0  0  0  0  0  0  0  0  0  0  0
   62.9373   81.8158   30.4129 H   0  0  0  0  0  0  0  0  0  0  0  0
   64.5132   82.6779   30.4129 H   0  0  0  0  0  0  0  0  0  0  0  0
   60.8114   81.0713   33.5069 H   0  0  0  0  0  0  0  0  0  0  0  0
   58.9571   79.7488   32.4893 H   0  0  0  0  0  0  0  0  0  0  0  0
   57.0000   80.0750   30.7760 H   0  0  0  0  0  0  0  0  0  0  0  0
   57.0666   77.2983   30.2383 H   0  0  0  0  0  0  0  0  0  0  0  0
   55.0405   75.8819   29.8984 H   0  0  0  0  0  0  0  0  0  0  0  0
   52.2680   74.4700   27.9820 H   0  0  0  0  0  0  0  0  0  0  0  0
   53.9500   74.5160   28.3610 H   0  0  0  0  0  0  0  0  0  0  0  0
   53.6722   78.6007   26.8206 H   0  0  0  0  0  0  0  0  0  0  0  0
   55.6969   80.0191   27.1628 H   0  0  0  0  0  0  0  0  0  0  0  0
   59.0070   82.3307   29.0222 H   0  0  0  0  0  0  0  0  0  0  0  0
   60.8514   83.6645   30.0452 H   0  0  0  0  0  0  0  0  0  0  0  0
  1  2  1  0
  2  3  1  0
  2  4  1  0
  4  5  2  0
  4  6  1  0
  6  7  1  0
  7  8  2  0
  8  9  1  0
  9 10  1  0
 10 11  1  0
 11 12  2  0
 11 13  1  0
 13 14  1  0
 14 15  2  0
 15 16  1  0
 16 17  1  0
 17 18  1  0
 17 19  2  0
 16 20  2  0
 20 21  1  0
  9 22  2  0
 22 23  1  0
 23  6  2  0
 21 13  2  0
  1 24  1  0
  1 25  1  0
  1 26  1  0
  3 27  1  0
  3 28  1  0
  3 29  1  0
  7 30  1  0
  8 31  1  0
 10 32  1  0
 14 33  1  0
 15 34  1  0
 18 35  1  0
 18 36  1  0
 20 37  1  0
 21 38  1  0
 22 39  1  0
 23 40  1  0
M  END
>  <meeko>  (1) 
{"is_sidechain": false}

>  <smiles>  (1) 
CN(C)C(=O)c1ccc(NC(=O)c2ccc(C(N)=O)cc2)cc1

>  <vina_score>  (1) 
-7.648

>  <job_id>  (1) 
05ae4041116e92fb

$$$$
