
     RDKit          3D

 48 50  0  0  0  0  0  0  0  0999 V2000
   61.5260   80.8170   33.4450 C   0  0  0  0  0  0  0  0  0  0  0  0
   60.1590   80.7440   33.9420 N   0  0  0  0  0  0  0  0  0  0  0  0
   60.0100   80.6070   35.3800 C   0  0  0  0  0  0  0  0  0  0  0  0
   59.0290   81.0730   33.1940 C   0  0  0  0  0  0  0  0  0  0  0  0
   57.9410   81.3530   33.6950 O   0  0  0  0  0  0  0  0  0  0  0  0
   59.1170   81.0700   31.7170 C   0  0  0  0  0  0  0  0  0  0  0  0
   59.8030   82.0820   31.0400 C   0  0  0  0  0  0  0  0  0  0  0  0
   59.8900   82.0350   29.6520 C   0  0  0  0  0  0  0  0  0  0  0  0
   59.3080   80.9740   28.9490 C   0  0  0  0  0  0  0  0  0  0  0  0
   58.6450   79.9350   29.6160 C   0  0  0  0  0  0  0  0  0  0  0  0
   58.0320   78.8640   28.9450 N   0  0  0  0  0  0  0  0  0  0  0  0
   56.6870   78.5900   28.6370 C   0  0  0  0  0  0  0  0  0  0  0  0
   55.8490   77.8470   29.4770 C   0  0  0  0  0  0  0  0  0  0  0  0
   54.5080   77.6170   29.1490 C   0  0  0  0  0  0  0  0  0  0  0  0
   53.9790   78.1510   27.9760 C   0  0  0  0  0  0  0  0  0  0  0  0
   54.7920   78.9230   27.1460 C   0  0  0  0  0  0  0  0  0  0  0  0
   54.2140   79.4780   25.9030 C   0  0  0  0  0  0  0  0  0  0  0  0
   54.0420   78.7210   24.9520 O   0  0  0  0  0  0  0  0  0  0  0  0
   53.8780   80.8180   25.8760 N   0  0  0  0  0  0  0  0  0  0  0  0
   53.7820   81.7290   27.0090 C   0  0  0  0  0  0  0  0  0  0  0  0
   52.8700   82.8470   26.5200 C   0  0  0  0  0  0  0  0  0  0  0  0
   53.1420   82.8790   25.0220 C   0  0  0  0  0  0  0  0  0  0  0  0
   53.2980   81.4050   24.6810 C   0  0  0  0  0  0  0  0  0  0  0  0
   56.1410   79.1260   27.4630 C   0  0  0  0  0  0  0  0  0  0  0  0
   58.5580   79.9970   31.0130 C   0  0  0  0  0  0  0  0  0  0  0  0
   62.2236   80.8543   34.2947 H   0  0  0  0  0  0  0  0  0  0  0  0
   61.7414   79.9291   32.8325 H   0  0  0  0  0  0  0  0  0  0  0  0
   61.6456   81.7228   32.8325 H   0  0  0  0  0  0  0  0  0  0  0  0
   60.7284   81.2675   35.8876 H   0  0  0  0  0  0  0  0  0  0  0  0
   58.9865   80.8860   35.6708 H   0  0  0  0  0  0  0  0  0  0  0  0
   60.2023   79.5637   35.6708 H   0  0  0  0  0  0  0  0  0  0  0  0
   60.2693   82.9070   31.5985 H   0  0  0  0  0  0  0  0  0  0  0  0
   60.4166   82.8323   29.1070 H   0  0  0  0  0  0  0  0  0  0  0  0
   59.3722   80.9552   27.8510 H   0  0  0  0  0  0  0  0  0  0  0  0
   58.6780   78.1380   28.6500 H   0  0  0  0  0  0  0  0  0  0  0  0
   56.2527   77.4356   30.4139 H   0  0  0  0  0  0  0  0  0  0  0  0
   53.8729   77.0157   29.8161 H   0  0  0  0  0  0  0  0  0  0  0  0
   52.9288   77.9654   27.7066 H   0  0  0  0  0  0  0  0  0  0  0  0
   53.3427   81.2214   27.8804 H   0  0  0  0  0  0  0  0  0  0  0  0
   54.7654   82.1012   27.3322 H   0  0  0  0  0  0  0  0  0  0  0  0
   51.8146   82.6149   26.7255 H   0  0  0  0  0  0  0  0  0  0  0  0
   53.0600   83.8102   27.0162 H   0  0  0  0  0  0  0  0  0  0  0  0
   52.2989   83.3260   24.4749 H   0  0  0  0  0  0  0  0  0  0  0  0
   54.0180   83.4860   24.7495 H   0  0  0  0  0  0  0  0  0  0  0  0
   52.3209   80.9511   24.4591 H   0  0  0  0  0  0  0  0  0  0  0  0
   53.9219   81.2443   23.7894 H   0  0  0  0  0  0  0  0  0  0  0  0
   56.7780   79.7118   26.7839 H   0  0  0  0  0  0  0  0  0  0  0  0
   58.0449   79.1939   31.5624 H   0  0  0  0  0  0  0  0  0  0  0  0
  1  2  1  0
  2  3  1  0
  2  4  1  0
  4  5  2  0
  4  6  1  0
  6  7  1  0
  7  8  2  0
  8  9  1  0
  9 10  2  0
 10 11  1  0
 11 12  1  0
 12 13  2  0
 13 14  1  0
 14 15  2  0
 15 16  1  0
 16 17  1  0
 17 18  2  0
 17 19  1  0
 19 20  1  0
 20 21  1  0
 21 22  1  0
 22 23  1  0
 16 24  2  0
 10 25  1  0
 25  6  2  0
 24 12  1  0
 23 19  1  0
  1 26  1  0
  1 27  1  0
  1 28  1  0
  3 29  1  0
  3 30  1  0
  3 31  1  0
  7 32  1  0
  8 33  1  0
  9 34  1  0
 11 35  1  0
 13 36  1  0
 14 37  1  0
 15 38  1  0
 20 39  1  0
 20 40  1  0
 21 41  1  0
 21 42  1  0
 22 43  1  0
 22 44  1  0
 23 45  1  0
 23 46  1  0
 24 47  1  0
 25 48  1  0
M  END
>  <meeko>  (1) 
{"is_sidechain": false}

>  <smiles>  (1) 
CN(C)C(=O)c1cccc(Nc2cccc(C(=O)N3CCCC3)c2)c1

>  <vina_score>  (1) 
-9.169

>  <job_id>  (1) 
061a6cfe87c6a64d

$$$$
