
     RDKit          3D

 34 35  0  0  0  0  0  0  0  0999 V2000
   52.9350   81.7320   21.5820 C   0  0  0  0  0  0  0  0  0  0  0  0
   51.7070   81.6000   22.3550 N   0  0  0  0  0  0  0  0  0  0  0  0
   50.5020   81.3230   21.5910 C   0  0  0  0  0  0  0  0  0  0  0  0
   51.6550   81.4450   23.7380 C   0  0  0  0  0  0  0  0  0  0  0  0
   50.6840   80.9820   24.3330 O   0  0  0  0  0  0  0  0  0  0  0  0
   52.8140   81.8720   24.5560 C   0  0  0  0  0  0  0  0  0  0  0  0
   52.9350   83.1960   24.9870 C   0  0  0  0  0  0  0  0  0  0  0  0
   54.0230   83.5600   25.7760 C   0  0  0  0  0  0  0  0  0  0  0  0
   54.9670   82.6000   26.1460 C   0  0  0  0  0  0  0  0  0  0  0  0
   56.0290   83.0190   26.8520 F   0  0  0  0  0  0  0  0  0  0  0  0
   54.8510   81.2570   25.7520 C   0  0  0  0  0  0  0  0  0  0  0  0
   55.7370   80.2320   26.1390 N   0  0  0  0  0  0  0  0  0  0  0  0
   55.7680   79.4250   27.2960 C   0  0  0  0  0  0  0  0  0  0  0  0
   54.7360   78.5600   27.6790 C   0  0  0  0  0  0  0  0  0  0  0  0
   53.6540   78.3980   26.9020 F   0  0  0  0  0  0  0  0  0  0  0  0
   54.8120   77.7990   28.8500 C   0  0  0  0  0  0  0  0  0  0  0  0
   55.9350   77.8860   29.6690 C   0  0  0  0  0  0  0  0  0  0  0  0
   56.9820   78.7290   29.3080 C   0  0  0  0  0  0  0  0  0  0  0  0
   56.8910   79.4820   28.1360 C   0  0  0  0  0  0  0  0  0  0  0  0
   57.9150   80.2860   27.8070 F   0  0  0  0  0  0  0  0  0  0  0  0
   53.7500   80.9060   24.9540 C   0  0  0  0  0  0  0  0  0  0  0  0
   53.7911   81.8240   22.2666 H   0  0  0  0  0  0  0  0  0  0  0  0
   53.0665   80.8428   20.9479 H   0  0  0  0  0  0  0  0  0  0  0  0
   52.8745   82.6288   20.9479 H   0  0  0  0  0  0  0  0  0  0  0  0
   49.6667   81.1310   22.2805 H   0  0  0  0  0  0  0  0  0  0  0  0
   50.2624   82.1895   20.9571 H   0  0  0  0  0  0  0  0  0  0  0  0
   50.6649   80.4389   20.9571 H   0  0  0  0  0  0  0  0  0  0  0  0
   52.1782   83.9431   24.7057 H   0  0  0  0  0  0  0  0  0  0  0  0
   54.1387   84.6025   26.1074 H   0  0  0  0  0  0  0  0  0  0  0  0
   56.6360   80.2760   25.6650 H   0  0  0  0  0  0  0  0  0  0  0  0
   53.9829   77.1303   29.1247 H   0  0  0  0  0  0  0  0  0  0  0  0
   55.9941   77.2933   30.5937 H   0  0  0  0  0  0  0  0  0  0  0  0
   57.8771   78.8016   29.9433 H   0  0  0  0  0  0  0  0  0  0  0  0
   53.6200   79.8607   24.6371 H   0  0  0  0  0  0  0  0  0  0  0  0
  1  2  1  0
  2  3  1  0
  2  4  1  0
  4  5  2  0
  4  6  1  0
  6  7  1  0
  7  8  2  0
  8  9  1  0
  9 10  1  0
  9 11  2  0
 11 12  1  0
 12 13  1  0
 13 14  2  0
 14 15  1  0
 14 16  1  0
 16 17  2  0
 17 18  1  0
 18 19  2  0
 19 20  1  0
 11 21  1  0
 21  6  2  0
 19 13  1  0
  1 22  1  0
  1 23  1  0
  1 24  1  0
  3 25  1  0
  3 26  1  0
  3 27  1  0
  7 28  1  0
  8 29  1  0
 12 30  1  0
 16 31  1  0
 17 32  1  0
 18 33  1  0
 21 34  1  0
M  END
>  <meeko>  (1) 
{"is_sidechain": false}

>  <smiles>  (1) 
CN(C)C(=O)c1ccc(F)c(Nc2c(F)cccc2F)c1

>  <vina_score>  (1) 
-7.798

>  <job_id>  (1) 
0627399d2897b6ec

$$$$
