
     RDKit          3D

 37 38  0  0  0  0  0  0  0  0999 V2000
   52.9350   79.5770   25.7320 C   0  0  0  0  0  0  0  0  0  0  0  0
   53.5750   80.0920   26.7950 C   0  0  0  0  0  0  0  0  0  0  0  0
   53.4240   81.5370   27.1840 C   0  0  0  0  0  0  0  0  0  0  0  0
   54.4690   79.2500   27.6200 C   0  0  0  0  0  0  0  0  0  0  0  0
   53.9580   78.1860   28.3760 C   0  0  0  0  0  0  0  0  0  0  0  0
   54.8040   77.3850   29.1450 C   0  0  0  0  0  0  0  0  0  0  0  0
   56.1750   77.6310   29.1650 C   0  0  0  0  0  0  0  0  0  0  0  0
   56.7160   78.6800   28.4130 C   0  0  0  0  0  0  0  0  0  0  0  0
   58.2030   78.9520   28.4300 C   0  0  0  0  0  0  0  0  0  0  0  0
   58.6250   79.9680   29.4680 C   0  0  0  0  0  0  0  0  0  0  0  0
   58.1770   79.8570   30.7940 C   0  0  0  0  0  0  0  0  0  0  0  0
   58.5660   80.7910   31.7560 C   0  0  0  0  0  0  0  0  0  0  0  0
   59.4150   81.8380   31.3930 C   0  0  0  0  0  0  0  0  0  0  0  0
   59.8860   83.0400   32.6020 S   0  0  0  0  0  0  0  0  0  0  0  0
   59.3100   82.3530   34.0200 N   0  0  0  0  0  0  0  0  0  0  0  0
   59.1150   84.2450   32.4020 O   0  0  0  0  0  0  0  0  0  0  0  0
   61.3250   83.0550   32.7260 O   0  0  0  0  0  0  0  0  0  0  0  0
   59.8610   81.9720   30.0760 C   0  0  0  0  0  0  0  0  0  0  0  0
   59.4690   81.0340   29.1190 C   0  0  0  0  0  0  0  0  0  0  0  0
   55.8540   79.4820   27.6450 C   0  0  0  0  0  0  0  0  0  0  0  0
   53.0654   78.5161   25.4724 H   0  0  0  0  0  0  0  0  0  0  0  0
   52.2806   80.2163   25.1212 H   0  0  0  0  0  0  0  0  0  0  0  0
   53.4151   81.6225   28.2806 H   0  0  0  0  0  0  0  0  0  0  0  0
   54.2665   82.1160   26.7779 H   0  0  0  0  0  0  0  0  0  0  0  0
   52.4800   81.9293   26.7779 H   0  0  0  0  0  0  0  0  0  0  0  0
   52.8776   77.9798   28.3632 H   0  0  0  0  0  0  0  0  0  0  0  0
   54.3868   76.5571   29.7370 H   0  0  0  0  0  0  0  0  0  0  0  0
   56.8358   76.9975   29.7750 H   0  0  0  0  0  0  0  0  0  0  0  0
   58.7263   78.0068   28.6368 H   0  0  0  0  0  0  0  0  0  0  0  0
   58.4638   79.3707   27.4468 H   0  0  0  0  0  0  0  0  0  0  0  0
   57.5135   79.0267   31.0775 H   0  0  0  0  0  0  0  0  0  0  0  0
   58.2064   80.7026   32.7918 H   0  0  0  0  0  0  0  0  0  0  0  0
   58.2960   82.2510   33.9690 H   0  0  0  0  0  0  0  0  0  0  0  0
   59.6310   82.8940   34.8230 H   0  0  0  0  0  0  0  0  0  0  0  0
   60.5159   82.8100   29.7951 H   0  0  0  0  0  0  0  0  0  0  0  0
   59.8246   81.1312   28.0826 H   0  0  0  0  0  0  0  0  0  0  0  0
   56.2727   80.3081   27.0515 H   0  0  0  0  0  0  0  0  0  0  0  0
  1  2  2  0
  2  3  1  0
  2  4  1  0
  4  5  1  0
  5  6  2  0
  6  7  1  0
  7  8  2  0
  8  9  1  0
  9 10  1  0
 10 11  1  0
 11 12  2  0
 12 13  1  0
 13 14  1  0
 14 15  1  0
 14 16  2  0
 14 17  2  0
 13 18  2  0
 18 19  1  0
  8 20  1  0
 20  4  2  0
 19 10  2  0
  1 21  1  0
  1 22  1  0
  3 23  1  0
  3 24  1  0
  3 25  1  0
  5 26  1  0
  6 27  1  0
  7 28  1  0
  9 29  1  0
  9 30  1  0
 11 31  1  0
 12 32  1  0
 15 33  1  0
 15 34  1  0
 18 35  1  0
 19 36  1  0
 20 37  1  0
M  END
>  <meeko>  (1) 
{"is_sidechain": false}

>  <smiles>  (1) 
C=C(C)c1cccc(Cc2ccc(S(N)(=O)=O)cc2)c1

>  <vina_score>  (1) 
-8.230

>  <job_id>  (1) 
063c86b60899e359

$$$$
