
     RDKit          3D

 35 36  0  0  0  0  0  0  0  0999 V2000
   56.7130   78.3610   30.2030 C   0  0  0  0  0  0  0  0  0  0  0  0
   57.1840   79.0680   29.1610 C   0  0  0  0  0  0  0  0  0  0  0  0
   58.6240   79.4830   29.0430 C   0  0  0  0  0  0  0  0  0  0  0  0
   59.2140   79.4820   30.3360 O   0  0  0  0  0  0  0  0  0  0  0  0
   56.2730   79.4160   28.0540 C   0  0  0  0  0  0  0  0  0  0  0  0
   56.5880   80.4440   27.1600 C   0  0  0  0  0  0  0  0  0  0  0  0
   55.7190   80.7660   26.1100 C   0  0  0  0  0  0  0  0  0  0  0  0
   54.5140   80.0700   25.9260 C   0  0  0  0  0  0  0  0  0  0  0  0
   53.6010   80.4110   24.8230 C   0  0  0  0  0  0  0  0  0  0  0  0
   53.0510   79.4090   24.0030 C   0  0  0  0  0  0  0  0  0  0  0  0
   52.1850   79.7290   22.9550 C   0  0  0  0  0  0  0  0  0  0  0  0
   51.8520   81.0640   22.7210 C   0  0  0  0  0  0  0  0  0  0  0  0
   50.7560   81.4670   21.3870 S   0  0  0  0  0  0  0  0  0  0  0  0
   49.2700   80.9920   22.0210 N   0  0  0  0  0  0  0  0  0  0  0  0
   50.6850   82.9050   21.2690 O   0  0  0  0  0  0  0  0  0  0  0  0
   51.0600   80.6070   20.2690 O   0  0  0  0  0  0  0  0  0  0  0  0
   52.3920   82.0800   23.5100 C   0  0  0  0  0  0  0  0  0  0  0  0
   53.2580   81.7500   24.5560 C   0  0  0  0  0  0  0  0  0  0  0  0
   54.2070   79.0400   26.8270 C   0  0  0  0  0  0  0  0  0  0  0  0
   55.0740   78.7160   27.8770 C   0  0  0  0  0  0  0  0  0  0  0  0
   55.6498   78.0817   30.2425 H   0  0  0  0  0  0  0  0  0  0  0  0
   57.3908   78.0618   31.0160 H   0  0  0  0  0  0  0  0  0  0  0  0
   59.1595   78.7755   28.3929 H   0  0  0  0  0  0  0  0  0  0  0  0
   58.6854   80.4913   28.6076 H   0  0  0  0  0  0  0  0  0  0  0  0
   58.5510   79.8460   30.9460 H   0  0  0  0  0  0  0  0  0  0  0  0
   57.5265   81.0046   27.2825 H   0  0  0  0  0  0  0  0  0  0  0  0
   55.9853   81.5782   25.4176 H   0  0  0  0  0  0  0  0  0  0  0  0
   53.3073   78.3558   24.1903 H   0  0  0  0  0  0  0  0  0  0  0  0
   51.7683   78.9345   22.3185 H   0  0  0  0  0  0  0  0  0  0  0  0
   48.6920   81.7750   22.3230 H   0  0  0  0  0  0  0  0  0  0  0  0
   48.7900   80.4080   21.3340 H   0  0  0  0  0  0  0  0  0  0  0  0
   52.1383   83.1316   23.3105 H   0  0  0  0  0  0  0  0  0  0  0  0
   53.6791   82.5507   25.1818 H   0  0  0  0  0  0  0  0  0  0  0  0
   53.2694   78.4775   26.7065 H   0  0  0  0  0  0  0  0  0  0  0  0
   54.8105   77.9033   28.5698 H   0  0  0  0  0  0  0  0  0  0  0  0
  1  2  2  0
  2  3  1  0
  3  4  1  0
  2  5  1  0
  5  6  1  0
  6  7  2  0
  7  8  1  0
  8  9  1  0
  9 10  1  0
 10 11  2  0
 11 12  1  0
 12 13  1  0
 13 14  1  0
 13 15  2  0
 13 16  2  0
 12 17  2  0
 17 18  1  0
  8 19  2  0
 19 20  1  0
 20  5  2  0
 18  9  2  0
  1 21  1  0
  1 22  1  0
  3 23  1  0
  3 24  1  0
  4 25  1  0
  6 26  1  0
  7 27  1  0
 10 28  1  0
 11 29  1  0
 14 30  1  0
 14 31  1  0
 17 32  1  0
 18 33  1  0
 19 34  1  0
 20 35  1  0
M  END
>  <meeko>  (1) 
{"is_sidechain": false}

>  <smiles>  (1) 
C=C(CO)c1ccc(-c2ccc(S(N)(=O)=O)cc2)cc1

>  <vina_score>  (1) 
-7.878

>  <job_id>  (1) 
06715144f8c23a39

$$$$
