
     RDKit          3D

 49 51  0  0  0  0  0  0  0  0999 V2000
   62.0240   81.7270   35.7030 C   0  0  0  0  0  0  0  0  0  0  0  0
   61.2280   81.8680   34.4860 N   0  0  0  0  0  0  0  0  0  0  0  0
   60.0510   81.0050   34.4970 C   0  0  0  0  0  0  0  0  0  0  0  0
   58.9500   81.5110   33.5240 C   0  0  0  0  0  0  0  0  0  0  0  0
   59.3310   82.7080   32.6430 C   0  0  0  0  0  0  0  0  0  0  0  0
   60.3060   82.4560   31.5810 N   0  0  0  0  0  0  0  0  0  0  0  0
   60.0120   81.2920   30.8400 N   0  0  0  0  0  0  0  0  0  0  0  0
   59.2180   81.3810   29.6990 C   0  0  0  0  0  0  0  0  0  0  0  0
   58.8460   82.4250   29.1720 O   0  0  0  0  0  0  0  0  0  0  0  0
   58.8770   80.0100   29.1510 C   0  0  0  0  0  0  0  0  0  0  0  0
   57.9870   80.1000   27.9160 C   0  0  0  0  0  0  0  0  0  0  0  0
   56.7490   79.2700   28.0620 C   0  0  0  0  0  0  0  0  0  0  0  0
   56.5660   78.2260   28.9480 C   0  0  0  0  0  0  0  0  0  0  0  0
   55.3050   77.7260   28.7730 N   0  0  0  0  0  0  0  0  0  0  0  0
   54.7490   76.6160   29.5150 C   0  0  0  0  0  0  0  0  0  0  0  0
   54.6430   78.4290   27.7880 C   0  0  0  0  0  0  0  0  0  0  0  0
   53.3460   78.2880   27.2710 C   0  0  0  0  0  0  0  0  0  0  0  0
   52.9470   79.1610   26.2540 C   0  0  0  0  0  0  0  0  0  0  0  0
   53.8170   80.1340   25.7740 C   0  0  0  0  0  0  0  0  0  0  0  0
   53.2940   81.1960   24.5220 Cl  0  0  0  0  0  0  0  0  0  0  0  0
   55.1080   80.2690   26.2920 C   0  0  0  0  0  0  0  0  0  0  0  0
   55.5320   79.4020   27.3210 C   0  0  0  0  0  0  0  0  0  0  0  0
   61.7130   82.4720   32.0030 C   0  0  0  0  0  0  0  0  0  0  0  0
   62.0770   81.6780   33.2860 C   0  0  0  0  0  0  0  0  0  0  0  0
   61.3731   81.8423   36.5822 H   0  0  0  0  0  0  0  0  0  0  0  0
   62.4924   80.7319   35.7215 H   0  0  0  0  0  0  0  0  0  0  0  0
   62.8057   82.5007   35.7215 H   0  0  0  0  0  0  0  0  0  0  0  0
   60.3516   79.9904   34.1967 H   0  0  0  0  0  0  0  0  0  0  0  0
   59.6342   81.0112   35.5150 H   0  0  0  0  0  0  0  0  0  0  0  0
   58.6782   80.6772   32.8600 H   0  0  0  0  0  0  0  0  0  0  0  0
   58.1271   81.8629   34.1636 H   0  0  0  0  0  0  0  0  0  0  0  0
   58.4105   83.0803   32.1695 H   0  0  0  0  0  0  0  0  0  0  0  0
   59.8192   83.4234   33.3211 H   0  0  0  0  0  0  0  0  0  0  0  0
   60.1810   80.3830   31.2600 H   0  0  0  0  0  0  0  0  0  0  0  0
   59.8093   79.4922   28.8813 H   0  0  0  0  0  0  0  0  0  0  0  0
   58.3290   79.4573   29.9283 H   0  0  0  0  0  0  0  0  0  0  0  0
   57.6961   81.1496   27.7623 H   0  0  0  0  0  0  0  0  0  0  0  0
   58.5558   79.7178   27.0556 H   0  0  0  0  0  0  0  0  0  0  0  0
   57.3087   77.8590   29.6717 H   0  0  0  0  0  0  0  0  0  0  0  0
   54.8463   76.8103   30.5933 H   0  0  0  0  0  0  0  0  0  0  0  0
   53.6859   76.4990   29.2580 H   0  0  0  0  0  0  0  0  0  0  0  0
   55.2919   75.6945   29.2580 H   0  0  0  0  0  0  0  0  0  0  0  0
   52.6641   77.5145   27.6540 H   0  0  0  0  0  0  0  0  0  0  0  0
   51.9356   79.0773   25.8297 H   0  0  0  0  0  0  0  0  0  0  0  0
   55.7858   81.0425   25.9018 H   0  0  0  0  0  0  0  0  0  0  0  0
   62.3110   82.0590   31.1773 H   0  0  0  0  0  0  0  0  0  0  0  0
   61.9233   83.5230   32.2504 H   0  0  0  0  0  0  0  0  0  0  0  0
   62.0456   80.6089   33.0290 H   0  0  0  0  0  0  0  0  0  0  0  0
   63.0617   82.0693   33.5813 H   0  0  0  0  0  0  0  0  0  0  0  0
  1  2  1  0
  2  3  1  0
  3  4  1  0
  4  5  1  0
  5  6  1  0
  6  7  1  0
  7  8  1  0
  8  9  2  0
  8 10  1  0
 10 11  1  0
 11 12  1  0
 12 13  2  0
 13 14  1  0
 14 15  1  0
 14 16  1  0
 16 17  2  0
 17 18  1  0
 18 19  2  0
 19 20  1  0
 19 21  1  0
 21 22  2  0
  6 23  1  0
 23 24  1  0
 24  2  1  0
 22 12  1  0
 22 16  1  0
  1 25  1  0
  1 26  1  0
  1 27  1  0
  3 28  1  0
  3 29  1  0
  4 30  1  0
  4 31  1  0
  5 32  1  0
  5 33  1  0
  7 34  1  0
 10 35  1  0
 10 36  1  0
 11 37  1  0
 11 38  1  0
 13 39  1  0
 15 40  1  0
 15 41  1  0
 15 42  1  0
 17 43  1  0
 18 44  1  0
 21 45  1  0
 23 46  1  0
 23 47  1  0
 24 48  1  0
 24 49  1  0
M  END
>  <meeko>  (1) 
{"is_sidechain": false}

>  <smiles>  (1) 
CN1CCCN(NC(=O)CCc2cn(C)c3ccc(Cl)cc23)CC1

>  <vina_score>  (1) 
-6.283

>  <job_id>  (1) 
06721777de8de3c6

$$$$
