
     RDKit          3D

 52 55  0  0  0  0  0  0  0  0999 V2000
   55.3290   85.2700   26.5190 C   0  0  0  0  0  0  0  0  0  0  0  0
   55.8700   83.8970   26.1460 C   0  0  0  0  0  0  0  0  0  0  0  0
   55.0590   82.7270   26.7480 C   0  0  0  0  0  0  0  0  0  0  0  0
   53.6980   83.2050   27.2700 C   0  0  0  0  0  0  0  0  0  0  0  0
   54.9610   81.5530   25.7280 C   0  0  2  0  0  0  0  0  0  0  0  0
   54.3400   81.9110   24.3620 C   0  0  0  0  0  0  0  0  0  0  0  0
   52.8880   81.8730   24.3530 N   0  0  0  0  0  0  0  0  0  0  0  0
   52.1850   80.8580   24.9630 C   0  0  0  0  0  0  0  0  0  0  0  0
   51.0080   80.6620   24.6870 O   0  0  0  0  0  0  0  0  0  0  0  0
   52.9490   80.0900   25.9150 C   0  0  0  0  0  0  0  0  0  0  0  0
   52.5920   78.9640   26.6390 C   0  0  0  0  0  0  0  0  0  0  0  0
   53.7120   78.5790   27.4220 C   0  0  0  0  0  0  0  0  0  0  0  0
   54.0160   77.5680   28.3220 C   0  0  0  0  0  0  0  0  0  0  0  0
   55.2460   77.5240   28.8800 N   0  0  0  0  0  0  0  0  0  0  0  0
   56.1510   78.4780   28.5800 C   0  0  0  0  0  0  0  0  0  0  0  0
   57.4350   78.4260   29.1270 N   0  0  0  0  0  0  0  0  0  0  0  0
   58.2010   79.5270   29.5440 C   0  0  0  0  0  0  0  0  0  0  0  0
   58.1790   79.8570   30.8980 C   0  0  0  0  0  0  0  0  0  0  0  0
   58.9310   80.9380   31.3650 C   0  0  0  0  0  0  0  0  0  0  0  0
   59.7040   81.6800   30.4750 C   0  0  0  0  0  0  0  0  0  0  0  0
   60.4410   82.7660   30.9910 N   0  0  0  0  0  0  0  0  0  0  0  0
   59.9850   84.0570   31.1770 C   0  0  0  0  0  0  0  0  0  0  0  0
   61.0390   84.9660   31.7590 C   0  0  0  0  0  0  0  0  0  0  0  0
   58.8730   84.4850   30.8910 O   0  0  0  0  0  0  0  0  0  0  0  0
   59.6760   81.2840   29.1450 C   0  0  0  0  0  0  0  0  0  0  0  0
   58.9510   80.2320   28.6770 N   0  0  0  0  0  0  0  0  0  0  0  0
   55.9590   79.4800   27.6980 N   0  0  0  0  0  0  0  0  0  0  0  0
   54.7260   79.4860   27.1670 C   0  0  0  0  0  0  0  0  0  0  0  0
   54.2410   80.4030   26.2770 N   0  0  0  0  0  0  0  0  0  0  0  0
   55.2918   85.3643   27.6143 H   0  0  0  0  0  0  0  0  0  0  0  0
   55.9877   86.0482   26.1061 H   0  0  0  0  0  0  0  0  0  0  0  0
   54.3165   85.3897   26.1061 H   0  0  0  0  0  0  0  0  0  0  0  0
   55.8544   83.8032   25.0501 H   0  0  0  0  0  0  0  0  0  0  0  0
   56.8878   83.8290   26.5577 H   0  0  0  0  0  0  0  0  0  0  0  0
   55.5903   82.3333   27.6270 H   0  0  0  0  0  0  0  0  0  0  0  0
   53.7057   83.2023   28.3700 H   0  0  0  0  0  0  0  0  0  0  0  0
   53.5038   84.2251   26.9072 H   0  0  0  0  0  0  0  0  0  0  0  0
   52.9086   82.5303   26.9072 H   0  0  0  0  0  0  0  0  0  0  0  0
   56.0157   81.2997   25.5452 H   0  0  0  0  0  0  0  0  0  0  0  0
   54.6626   82.9267   24.0893 H   0  0  0  0  0  0  0  0  0  0  0  0
   54.6860   81.1537   23.6431 H   0  0  0  0  0  0  0  0  0  0  0  0
   52.3760   82.3130   23.5990 H   0  0  0  0  0  0  0  0  0  0  0  0
   51.6153   78.4586   26.6120 H   0  0  0  0  0  0  0  0  0  0  0  0
   53.2625   76.8089   28.5791 H   0  0  0  0  0  0  0  0  0  0  0  0
   57.9700   77.8040   28.5390 H   0  0  0  0  0  0  0  0  0  0  0  0
   57.5700   79.2667   31.5985 H   0  0  0  0  0  0  0  0  0  0  0  0
   58.9126   81.2024   32.4326 H   0  0  0  0  0  0  0  0  0  0  0  0
   61.4030   82.5770   31.2390 H   0  0  0  0  0  0  0  0  0  0  0  0
   60.9922   84.9256   32.8573 H   0  0  0  0  0  0  0  0  0  0  0  0
   62.0332   84.6374   31.4221 H   0  0  0  0  0  0  0  0  0  0  0  0
   60.8601   85.9977   31.4221 H   0  0  0  0  0  0  0  0  0  0  0  0
   60.2778   81.8567   28.4239 H   0  0  0  0  0  0  0  0  0  0  0  0
  1  2  1  0
  2  3  1  0
  3  4  1  0
  3  5  1  0
  5  6  1  0
  6  7  1  0
  7  8  1  0
  8  9  2  0
  8 10  1  0
 10 11  2  0
 11 12  1  0
 12 13  2  0
 13 14  1  0
 14 15  2  0
 15 16  1  0
 16 17  1  0
 17 18  2  0
 18 19  1  0
 19 20  2  0
 20 21  1  0
 21 22  1  0
 22 23  1  0
 22 24  2  0
 20 25  1  0
 25 26  2  0
 15 27  1  0
 27 28  2  0
 28 29  1  0
 29  5  1  0
 29 10  1  0
 28 12  1  0
 26 17  1  0
  1 30  1  0
  1 31  1  0
  1 32  1  0
  2 33  1  0
  2 34  1  0
  3 35  1  0
  4 36  1  0
  4 37  1  0
  4 38  1  0
  5 39  1  6
  6 40  1  0
  6 41  1  0
  7 42  1  0
 11 43  1  0
 13 44  1  0
 16 45  1  0
 18 46  1  0
 19 47  1  0
 21 48  1  0
 23 49  1  0
 23 50  1  0
 23 51  1  0
 25 52  1  0
M  END
>  <meeko>  (1) 
{"is_sidechain": false}

>  <smiles>  (1) 
CCC(C)[C@@H]1CNC(=O)c2cc3cnc(Nc4ccc(NC(C)=O)cn4)nc3n21

>  <vina_score>  (1) 
-8.048

>  <job_id>  (1) 
0673a8dda9f1e7b1

$$$$
