
     RDKit          3D

 42 44  0  0  0  0  0  0  0  0999 V2000
   55.7820   81.1020   26.1310 C   0  0  0  0  0  0  0  0  0  0  0  0
   56.5300   80.2320   26.9710 O   0  0  0  0  0  0  0  0  0  0  0  0
   55.8280   79.2610   27.6480 C   0  0  0  0  0  0  0  0  0  0  0  0
   54.4910   78.9310   27.4140 C   0  0  0  0  0  0  0  0  0  0  0  0
   53.8940   77.9210   28.1620 C   0  0  0  0  0  0  0  0  0  0  0  0
   52.6120   77.6070   27.9320 F   0  0  0  0  0  0  0  0  0  0  0  0
   54.6020   77.2260   29.1320 C   0  0  0  0  0  0  0  0  0  0  0  0
   55.9370   77.5520   29.3710 C   0  0  0  0  0  0  0  0  0  0  0  0
   56.5630   78.5750   28.6470 C   0  0  0  0  0  0  0  0  0  0  0  0
   57.9130   78.9310   28.8670 N   0  0  0  0  0  0  0  0  0  0  0  0
   58.5030   79.9330   29.6570 C   0  0  0  0  0  0  0  0  0  0  0  0
   58.1850   79.9720   31.0250 C   0  0  0  0  0  0  0  0  0  0  0  0
   58.7090   80.9620   31.8620 C   0  0  0  0  0  0  0  0  0  0  0  0
   59.5720   81.9240   31.3380 C   0  0  0  0  0  0  0  0  0  0  0  0
   60.1050   82.9700   32.2390 C   0  0  0  0  0  0  0  0  0  0  0  0
   59.4130   83.9630   32.4530 O   0  0  0  0  0  0  0  0  0  0  0  0
   61.3460   82.7770   32.8150 N   0  0  0  0  0  0  0  0  0  0  0  0
   62.1150   81.5390   32.8610 C   0  0  0  0  0  0  0  0  0  0  0  0
   63.0600   81.7230   34.0420 C   0  0  0  0  0  0  0  0  0  0  0  0
   63.2770   83.2310   34.0730 C   0  0  0  0  0  0  0  0  0  0  0  0
   61.9020   83.7720   33.7140 C   0  0  0  0  0  0  0  0  0  0  0  0
   59.8760   81.9210   29.9750 C   0  0  0  0  0  0  0  0  0  0  0  0
   59.3440   80.9270   29.1450 C   0  0  0  0  0  0  0  0  0  0  0  0
   55.1897   81.7909   26.7512 H   0  0  0  0  0  0  0  0  0  0  0  0
   56.4699   81.6796   25.4960 H   0  0  0  0  0  0  0  0  0  0  0  0
   55.1078   80.5085   25.4960 H   0  0  0  0  0  0  0  0  0  0  0  0
   53.9146   79.4654   26.6444 H   0  0  0  0  0  0  0  0  0  0  0  0
   54.1148   76.4250   29.7074 H   0  0  0  0  0  0  0  0  0  0  0  0
   56.5038   77.0004   30.1355 H   0  0  0  0  0  0  0  0  0  0  0  0
   58.4900   78.6640   28.0690 H   0  0  0  0  0  0  0  0  0  0  0  0
   57.5118   79.2102   31.4451 H   0  0  0  0  0  0  0  0  0  0  0  0
   58.4417   80.9819   32.9289 H   0  0  0  0  0  0  0  0  0  0  0  0
   61.4531   80.6755   33.0231 H   0  0  0  0  0  0  0  0  0  0  0  0
   62.6520   81.3440   31.9210 H   0  0  0  0  0  0  0  0  0  0  0  0
   62.5990   81.3703   34.9764 H   0  0  0  0  0  0  0  0  0  0  0  0
   63.9948   81.1517   33.9433 H   0  0  0  0  0  0  0  0  0  0  0  0
   63.5870   83.5670   35.0735 H   0  0  0  0  0  0  0  0  0  0  0  0
   64.0722   83.5724   33.3940 H   0  0  0  0  0  0  0  0  0  0  0  0
   61.2776   83.8760   34.6136 H   0  0  0  0  0  0  0  0  0  0  0  0
   61.9510   84.7707   33.2555 H   0  0  0  0  0  0  0  0  0  0  0  0
   60.5318   82.6977   29.5546 H   0  0  0  0  0  0  0  0  0  0  0  0
   59.5912   80.9275   28.0731 H   0  0  0  0  0  0  0  0  0  0  0  0
  1  2  1  0
  2  3  1  0
  3  4  1  0
  4  5  2  0
  5  6  1  0
  5  7  1  0
  7  8  2  0
  8  9  1  0
  9 10  1  0
 10 11  1  0
 11 12  1  0
 12 13  2  0
 13 14  1  0
 14 15  1  0
 15 16  2  0
 15 17  1  0
 17 18  1  0
 18 19  1  0
 19 20  1  0
 20 21  1  0
 14 22  2  0
 22 23  1  0
  9  3  2  0
 23 11  2  0
 21 17  1  0
  1 24  1  0
  1 25  1  0
  1 26  1  0
  4 27  1  0
  7 28  1  0
  8 29  1  0
 10 30  1  0
 12 31  1  0
 13 32  1  0
 18 33  1  0
 18 34  1  0
 19 35  1  0
 19 36  1  0
 20 37  1  0
 20 38  1  0
 21 39  1  0
 21 40  1  0
 22 41  1  0
 23 42  1  0
M  END
>  <meeko>  (1) 
{"is_sidechain": false}

>  <smiles>  (1) 
COc1cc(F)ccc1Nc1ccc(C(=O)N2CCCC2)cc1

>  <vina_score>  (1) 
-7.958

>  <job_id>  (1) 
06def4738f741a58

$$$$
