
     RDKit          3D

 49 52  0  0  0  0  0  0  0  0999 V2000
   60.6570   84.0130   32.8090 C   0  0  0  0  0  0  0  0  0  0  0  0
   60.8020   83.7140   31.3150 C   0  0  0  0  0  0  0  0  0  0  0  0
   62.2770   83.6000   30.9230 C   0  0  0  0  0  0  0  0  0  0  0  0
   60.0210   82.4750   30.9140 C   0  0  0  0  0  0  0  0  0  0  0  0
   59.2740   81.7410   31.8410 C   0  0  0  0  0  0  0  0  0  0  0  0
   58.5650   80.6020   31.4430 C   0  0  0  0  0  0  0  0  0  0  0  0
   58.5690   80.1650   30.1110 C   0  0  0  0  0  0  0  0  0  0  0  0
   57.8780   78.9960   29.7850 N   0  0  0  0  0  0  0  0  0  0  0  0
   56.6910   78.7340   29.1050 C   0  0  0  0  0  0  0  0  0  0  0  0
   56.1150   77.5610   29.4310 N   0  0  0  0  0  0  0  0  0  0  0  0
   54.9780   77.2200   28.7970 C   0  0  0  0  0  0  0  0  0  0  0  0
   54.4090   77.9870   27.8160 C   0  0  0  0  0  0  0  0  0  0  0  0
   55.0850   79.1690   27.5460 C   0  0  0  0  0  0  0  0  0  0  0  0
   56.2030   79.5680   28.1730 N   0  0  0  0  0  0  0  0  0  0  0  0
   54.5570   80.0000   26.4770 C   0  0  0  0  0  0  0  0  0  0  0  0
   53.5420   79.5930   25.6310 C   0  0  0  0  0  0  0  0  0  0  0  0
   53.3260   80.6700   24.7390 C   0  0  0  0  0  0  0  0  0  0  0  0
   52.3640   80.7440   23.6310 C   0  0  0  0  0  0  0  0  0  0  0  0
   52.9350   80.9790   22.4100 N   0  0  0  0  0  0  0  0  0  0  0  0
   51.1520   80.6070   23.7580 O   0  0  0  0  0  0  0  0  0  0  0  0
   54.1630   81.6940   25.0200 N   0  0  0  0  0  0  0  0  0  0  0  0
   54.9100   81.2490   26.0590 N   0  0  0  0  0  0  0  0  0  0  0  0
   55.9380   82.1070   26.5970 C   0  0  0  0  0  0  0  0  0  0  0  0
   52.9300   78.2380   25.7270 C   0  0  0  0  0  0  0  0  0  0  0  0
   53.1020   77.6410   27.1450 C   0  0  0  0  0  0  0  0  0  0  0  0
   59.3270   80.8960   29.1960 C   0  0  0  0  0  0  0  0  0  0  0  0
   60.0380   82.0380   29.5860 C   0  0  0  0  0  0  0  0  0  0  0  0
   61.0640   83.1737   33.3921 H   0  0  0  0  0  0  0  0  0  0  0  0
   61.2095   84.9320   33.0543 H   0  0  0  0  0  0  0  0  0  0  0  0
   59.5933   84.1482   33.0543 H   0  0  0  0  0  0  0  0  0  0  0  0
   60.3703   84.5600   30.7601 H   0  0  0  0  0  0  0  0  0  0  0  0
   62.8952   83.5522   31.8316 H   0  0  0  0  0  0  0  0  0  0  0  0
   62.4288   82.6874   30.3278 H   0  0  0  0  0  0  0  0  0  0  0  0
   62.5672   84.4784   30.3278 H   0  0  0  0  0  0  0  0  0  0  0  0
   59.2435   82.0620   32.8927 H   0  0  0  0  0  0  0  0  0  0  0  0
   57.9915   80.0367   32.1924 H   0  0  0  0  0  0  0  0  0  0  0  0
   58.1880   78.1490   30.2380 H   0  0  0  0  0  0  0  0  0  0  0  0
   54.4820   76.2800   29.0805 H   0  0  0  0  0  0  0  0  0  0  0  0
   52.3620   81.0030   21.5820 H   0  0  0  0  0  0  0  0  0  0  0  0
   53.9450   81.0420   22.3590 H   0  0  0  0  0  0  0  0  0  0  0  0
   55.9024   82.0773   27.6960 H   0  0  0  0  0  0  0  0  0  0  0  0
   56.9231   81.7594   26.2525 H   0  0  0  0  0  0  0  0  0  0  0  0
   55.7721   83.1384   26.2525 H   0  0  0  0  0  0  0  0  0  0  0  0
   51.8568   78.3127   25.4977 H   0  0  0  0  0  0  0  0  0  0  0  0
   53.4369   77.5769   25.0087 H   0  0  0  0  0  0  0  0  0  0  0  0
   52.2823   78.0142   27.7765 H   0  0  0  0  0  0  0  0  0  0  0  0
   53.0909   76.5474   27.0272 H   0  0  0  0  0  0  0  0  0  0  0  0
   59.3671   80.5688   28.1466 H   0  0  0  0  0  0  0  0  0  0  0  0
   60.6174   82.5985   28.8376 H   0  0  0  0  0  0  0  0  0  0  0  0
  1  2  1  0
  2  3  1  0
  2  4  1  0
  4  5  1  0
  5  6  2  0
  6  7  1  0
  7  8  1  0
  8  9  1  0
  9 10  2  0
 10 11  1  0
 11 12  2  0
 12 13  1  0
 13 14  2  0
 13 15  1  0
 15 16  2  0
 16 17  1  0
 17 18  1  0
 18 19  1  0
 18 20  2  0
 17 21  2  0
 21 22  1  0
 22 23  1  0
 16 24  1  0
 24 25  1  0
  7 26  2  0
 26 27  1  0
 27  4  2  0
 14  9  1  0
 22 15  1  0
 25 12  1  0
  1 28  1  0
  1 29  1  0
  1 30  1  0
  2 31  1  0
  3 32  1  0
  3 33  1  0
  3 34  1  0
  5 35  1  0
  6 36  1  0
  8 37  1  0
 11 38  1  0
 19 39  1  0
 19 40  1  0
 23 41  1  0
 23 42  1  0
 23 43  1  0
 24 44  1  0
 24 45  1  0
 25 46  1  0
 25 47  1  0
 26 48  1  0
 27 49  1  0
M  END
>  <meeko>  (1) 
{"is_sidechain": false}

>  <smiles>  (1) 
CC(C)c1ccc(Nc2ncc3c(n2)-c2c(c(C(N)=O)nn2C)CC3)cc1

>  <vina_score>  (1) 
-9.077

>  <job_id>  (1) 
06f3f94b8c338748

$$$$
