
     RDKit          3D

 58 61  0  0  0  0  0  0  0  0999 V2000
   65.9890   81.7340   31.0200 C   0  0  0  0  0  0  0  0  0  0  0  0
   66.3830   82.7450   30.0910 O   0  0  0  0  0  0  0  0  0  0  0  0
   66.1240   84.0180   30.5120 C   0  0  0  0  0  0  0  0  0  0  0  0
   66.6800   84.5630   31.4590 O   0  0  0  0  0  0  0  0  0  0  0  0
   65.1080   84.7210   29.6120 C   0  0  0  0  0  0  0  0  0  0  0  0
   63.7170   84.4980   29.9850 N   0  0  0  0  0  0  0  0  0  0  0  0
   63.0520   85.4370   30.7480 C   0  0  0  0  0  0  0  0  0  0  0  0
   63.5330   86.5240   31.0410 O   0  0  0  0  0  0  0  0  0  0  0  0
   61.7070   85.0440   31.2550 C   0  0  0  0  0  0  0  0  0  0  0  0
   60.7500   86.0470   31.4330 C   0  0  0  0  0  0  0  0  0  0  0  0
   59.4680   85.7490   31.9030 C   0  0  0  0  0  0  0  0  0  0  0  0
   59.1770   84.4090   32.1770 C   0  0  0  0  0  0  0  0  0  0  0  0
   58.0190   83.8340   32.6410 N   0  0  0  0  0  0  0  0  0  0  0  0
   58.1710   82.4820   32.7770 C   0  0  0  0  0  0  0  0  0  0  0  0
   57.1610   81.7780   33.2690 O   0  0  0  0  0  0  0  0  0  0  0  0
   59.4460   82.1490   32.3540 C   0  0  0  0  0  0  0  0  0  0  0  0
   60.0580   80.8350   32.3440 C   0  0  0  0  0  0  0  0  0  0  0  0
   59.7430   79.8160   31.6050 N   0  0  0  0  0  0  0  0  0  0  0  0
   58.7900   79.8750   30.5820 C   0  0  0  0  0  0  0  0  0  0  0  0
   58.9980   80.5990   29.4050 C   0  0  0  0  0  0  0  0  0  0  0  0
   58.0300   80.6090   28.3950 C   0  0  0  0  0  0  0  0  0  0  0  0
   56.8400   79.8750   28.5250 C   0  0  0  0  0  0  0  0  0  0  0  0
   55.8220   79.8890   27.4620 C   0  0  0  0  0  0  0  0  0  0  0  0
   54.7600   78.9670   27.4680 C   0  0  0  0  0  0  0  0  0  0  0  0
   53.7900   78.9750   26.4620 C   0  0  0  0  0  0  0  0  0  0  0  0
   53.8790   79.9090   25.4290 C   0  0  0  0  0  0  0  0  0  0  0  0
   52.6370   79.9460   24.1710 S   0  0  0  0  0  0  0  0  0  0  0  0
   53.3100   81.0000   23.0490 N   0  0  0  0  0  0  0  0  0  0  0  0
   51.4610   80.6090   24.6810 O   0  0  0  0  0  0  0  0  0  0  0  0
   52.5800   78.6590   23.5200 O   0  0  0  0  0  0  0  0  0  0  0  0
   54.9150   80.8440   25.4050 C   0  0  0  0  0  0  0  0  0  0  0  0
   55.8810   80.8270   26.4160 C   0  0  0  0  0  0  0  0  0  0  0  0
   56.6590   79.1190   29.6930 C   0  0  0  0  0  0  0  0  0  0  0  0
   57.6270   79.1130   30.7030 C   0  0  0  0  0  0  0  0  0  0  0  0
   60.0990   83.3780   32.0000 C   0  0  0  0  0  0  0  0  0  0  0  0
   61.3890   83.7020   31.5240 C   0  0  0  0  0  0  0  0  0  0  0  0
   66.1328   82.1029   32.0463 H   0  0  0  0  0  0  0  0  0  0  0  0
   64.9286   81.4864   30.8646 H   0  0  0  0  0  0  0  0  0  0  0  0
   66.6022   80.8341   30.8646 H   0  0  0  0  0  0  0  0  0  0  0  0
   65.3052   85.8025   29.6500 H   0  0  0  0  0  0  0  0  0  0  0  0
   65.2346   84.2970   28.6049 H   0  0  0  0  0  0  0  0  0  0  0  0
   63.4280   83.5330   30.0780 H   0  0  0  0  0  0  0  0  0  0  0  0
   61.0106   87.0897   31.1989 H   0  0  0  0  0  0  0  0  0  0  0  0
   58.7166   86.5384   32.0517 H   0  0  0  0  0  0  0  0  0  0  0  0
   57.1710   84.3290   32.8730 H   0  0  0  0  0  0  0  0  0  0  0  0
   57.2850   81.7200   34.2340 H   0  0  0  0  0  0  0  0  0  0  0  0
   60.8897   80.6834   33.0477 H   0  0  0  0  0  0  0  0  0  0  0  0
   59.9311   81.1660   29.2715 H   0  0  0  0  0  0  0  0  0  0  0  0
   58.2039   81.2013   27.4845 H   0  0  0  0  0  0  0  0  0  0  0  0
   54.6917   78.2267   28.2787 H   0  0  0  0  0  0  0  0  0  0  0  0
   52.9626   78.2505   26.4843 H   0  0  0  0  0  0  0  0  0  0  0  0
   52.5750   81.3900   22.4590 H   0  0  0  0  0  0  0  0  0  0  0  0
   53.8700   81.7030   23.5310 H   0  0  0  0  0  0  0  0  0  0  0  0
   54.9712   81.5884   24.5971 H   0  0  0  0  0  0  0  0  0  0  0  0
   56.7010   81.5599   26.3926 H   0  0  0  0  0  0  0  0  0  0  0  0
   55.7430   78.5226   29.8163 H   0  0  0  0  0  0  0  0  0  0  0  0
   57.4696   78.5005   31.6031 H   0  0  0  0  0  0  0  0  0  0  0  0
   62.1372   82.9114   31.3655 H   0  0  0  0  0  0  0  0  0  0  0  0
  1  2  1  0
  2  3  1  0
  3  4  2  0
  3  5  1  0
  5  6  1  0
  6  7  1  0
  7  8  2  0
  7  9  1  0
  9 10  2  0
 10 11  1  0
 11 12  2  0
 12 13  1  0
 13 14  1  0
 14 15  1  0
 14 16  2  0
 16 17  1  0
 17 18  2  3
 18 19  1  0
 19 20  1  0
 20 21  2  0
 21 22  1  0
 22 23  1  0
 23 24  1  0
 24 25  2  0
 25 26  1  0
 26 27  1  0
 27 28  1  0
 27 29  2  0
 27 30  2  0
 26 31  2  0
 31 32  1  0
 22 33  2  0
 33 34  1  0
 16 35  1  0
 35 36  2  0
 36  9  1  0
 35 12  1  0
 34 19  2  0
 32 23  2  0
  1 37  1  0
  1 38  1  0
  1 39  1  0
  5 40  1  0
  5 41  1  0
  6 42  1  0
 10 43  1  0
 11 44  1  0
 13 45  1  0
 15 46  1  0
 17 47  1  0
 20 48  1  0
 21 49  1  0
 24 50  1  0
 25 51  1  0
 28 52  1  0
 28 53  1  0
 31 54  1  0
 32 55  1  0
 33 56  1  0
 34 57  1  0
 36 58  1  0
M  END
>  <meeko>  (1) 
{"is_sidechain": false}

>  <smiles>  (1) 
COC(=O)CNC(=O)c1ccc2[nH]c(O)c(C=Nc3ccc(-c4ccc(S(N)(=O)=O)cc4)cc3)c2c1

>  <vina_score>  (1) 
-7.356

>  <job_id>  (1) 
078c88867dafbb6d

$$$$
