
     RDKit          3D

 37 39  0  0  0  0  0  0  0  0999 V2000
   60.2860   83.0340   31.8210 F   0  0  0  0  0  0  0  0  0  0  0  0
   59.7520   82.0170   31.1340 C   0  0  0  0  0  0  0  0  0  0  0  0
   59.8700   81.9860   29.7510 C   0  0  0  0  0  0  0  0  0  0  0  0
   59.3100   80.9240   29.0360 C   0  0  0  0  0  0  0  0  0  0  0  0
   58.6400   79.8840   29.6940 C   0  0  0  0  0  0  0  0  0  0  0  0
   58.0300   78.8180   29.0110 N   0  0  0  0  0  0  0  0  0  0  0  0
   56.6830   78.5330   28.7260 C   0  0  0  0  0  0  0  0  0  0  0  0
   56.0050   77.6040   29.5200 C   0  0  0  0  0  0  0  0  0  0  0  0
   54.6790   77.2730   29.2500 C   0  0  0  0  0  0  0  0  0  0  0  0
   54.0150   77.8600   28.1700 C   0  0  0  0  0  0  0  0  0  0  0  0
   54.6570   78.7790   27.3320 C   0  0  0  0  0  0  0  0  0  0  0  0
   54.0300   79.4070   26.2420 N   0  0  0  0  0  0  0  0  0  0  0  0
   53.6850   78.4840   25.1310 C   0  0  0  0  0  0  0  0  0  0  0  0
   53.2410   79.2880   23.8980 C   0  0  0  0  0  0  0  0  0  0  0  0
   52.1500   80.1720   24.2010 O   0  0  0  0  0  0  0  0  0  0  0  0
   52.5420   81.0970   25.2290 C   0  0  0  0  0  0  0  0  0  0  0  0
   52.9370   80.3630   26.5200 C   0  0  0  0  0  0  0  0  0  0  0  0
   55.9940   79.1020   27.6450 C   0  0  0  0  0  0  0  0  0  0  0  0
   58.5310   79.9450   31.0930 C   0  0  0  0  0  0  0  0  0  0  0  0
   59.0870   81.0050   31.8130 C   0  0  0  0  0  0  0  0  0  0  0  0
   60.4004   82.7915   29.2220 H   0  0  0  0  0  0  0  0  0  0  0  0
   59.3965   80.9041   27.9396 H   0  0  0  0  0  0  0  0  0  0  0  0
   58.6790   78.1210   28.6640 H   0  0  0  0  0  0  0  0  0  0  0  0
   56.5234   77.1296   30.3663 H   0  0  0  0  0  0  0  0  0  0  0  0
   54.1535   76.5477   29.8887 H   0  0  0  0  0  0  0  0  0  0  0  0
   52.9657   77.5944   27.9742 H   0  0  0  0  0  0  0  0  0  0  0  0
   54.5666   77.8788   24.8731 H   0  0  0  0  0  0  0  0  0  0  0  0
   52.8619   77.8274   25.4495 H   0  0  0  0  0  0  0  0  0  0  0  0
   54.0920   79.8839   23.5364 H   0  0  0  0  0  0  0  0  0  0  0  0
   52.9013   78.5768   23.1307 H   0  0  0  0  0  0  0  0  0  0  0  0
   53.4014   81.6845   24.8736 H   0  0  0  0  0  0  0  0  0  0  0  0
   51.6870   81.7527   25.4503 H   0  0  0  0  0  0  0  0  0  0  0  0
   53.2750   81.0960   27.2673 H   0  0  0  0  0  0  0  0  0  0  0  0
   52.0652   79.8138   26.9051 H   0  0  0  0  0  0  0  0  0  0  0  0
   56.5197   79.8328   27.0130 H   0  0  0  0  0  0  0  0  0  0  0  0
   57.9995   79.1456   31.6300 H   0  0  0  0  0  0  0  0  0  0  0  0
   58.9987   81.0376   32.9090 H   0  0  0  0  0  0  0  0  0  0  0  0
  1  2  1  0
  2  3  1  0
  3  4  2  0
  4  5  1  0
  5  6  1  0
  6  7  1  0
  7  8  1  0
  8  9  2  0
  9 10  1  0
 10 11  2  0
 11 12  1  0
 12 13  1  0
 13 14  1  0
 14 15  1  0
 15 16  1  0
 16 17  1  0
 11 18  1  0
  5 19  2  0
 19 20  1  0
 20  2  2  0
 18  7  2  0
 17 12  1  0
  3 21  1  0
  4 22  1  0
  6 23  1  0
  8 24  1  0
  9 25  1  0
 10 26  1  0
 13 27  1  0
 13 28  1  0
 14 29  1  0
 14 30  1  0
 16 31  1  0
 16 32  1  0
 17 33  1  0
 17 34  1  0
 18 35  1  0
 19 36  1  0
 20 37  1  0
M  END
>  <meeko>  (1) 
{"is_sidechain": false}

>  <smiles>  (1) 
Fc1ccc(Nc2cccc(N3CCOCC3)c2)cc1

>  <vina_score>  (1) 
-8.347

>  <job_id>  (1) 
07d58ac0beecba57

$$$$
