
     RDKit          3D

 48 50  0  0  0  0  0  0  0  0999 V2000
   61.2170   80.6230   37.2580 C   0  0  0  0  0  0  0  0  0  0  0  0
   61.7500   81.0040   35.9520 N   0  0  0  0  0  0  0  0  0  0  0  0
   61.1850   80.1470   34.8860 C   0  0  0  0  0  0  0  0  0  0  0  0
   61.6790   80.5620   33.4810 C   0  0  0  0  0  0  0  0  0  0  0  0
   61.3970   81.9820   33.2360 N   0  0  0  0  0  0  0  0  0  0  0  0
   60.2100   82.4040   32.6340 C   0  0  0  0  0  0  0  0  0  0  0  0
   59.6140   83.4280   32.9580 O   0  0  0  0  0  0  0  0  0  0  0  0
   59.6480   81.5920   31.5260 C   0  0  0  0  0  0  0  0  0  0  0  0
   58.6680   80.6260   31.7700 C   0  0  0  0  0  0  0  0  0  0  0  0
   58.1710   79.8570   30.7140 C   0  0  0  0  0  0  0  0  0  0  0  0
   58.6650   80.0350   29.4140 C   0  0  0  0  0  0  0  0  0  0  0  0
   58.1180   79.2130   28.2710 C   0  0  0  0  0  0  0  0  0  0  0  0
   56.8840   79.8720   27.6470 C   0  0  0  0  0  0  0  0  0  0  0  0
   55.6580   79.0150   27.8010 C   0  0  0  0  0  0  0  0  0  0  0  0
   55.5810   78.0200   28.7740 C   0  0  0  0  0  0  0  0  0  0  0  0
   54.4350   77.2340   28.8620 C   0  0  0  0  0  0  0  0  0  0  0  0
   53.3930   77.4650   27.9760 C   0  0  0  0  0  0  0  0  0  0  0  0
   52.2400   76.6860   28.0200 N   0  0  0  0  0  0  0  0  0  0  0  0
   53.4440   78.4080   27.0220 N   0  0  0  0  0  0  0  0  0  0  0  0
   54.5670   79.1590   26.9530 C   0  0  0  0  0  0  0  0  0  0  0  0
   59.6640   80.9920   29.1840 C   0  0  0  0  0  0  0  0  0  0  0  0
   60.1610   81.7620   30.2370 C   0  0  0  0  0  0  0  0  0  0  0  0
   61.9640   82.8470   34.2720 C   0  0  0  0  0  0  0  0  0  0  0  0
   61.4590   82.4310   35.6690 C   0  0  0  0  0  0  0  0  0  0  0  0
   61.8374   81.0665   38.0508 H   0  0  0  0  0  0  0  0  0  0  0  0
   60.1839   80.9885   37.3532 H   0  0  0  0  0  0  0  0  0  0  0  0
   61.2285   79.5272   37.3532 H   0  0  0  0  0  0  0  0  0  0  0  0
   61.4838   79.1051   35.0733 H   0  0  0  0  0  0  0  0  0  0  0  0
   60.0909   80.2591   34.9064 H   0  0  0  0  0  0  0  0  0  0  0  0
   62.7636   80.3913   33.4135 H   0  0  0  0  0  0  0  0  0  0  0  0
   61.1528   79.9592   32.7262 H   0  0  0  0  0  0  0  0  0  0  0  0
   58.2886   80.4712   32.7908 H   0  0  0  0  0  0  0  0  0  0  0  0
   57.3880   79.1081   30.9039 H   0  0  0  0  0  0  0  0  0  0  0  0
   58.8962   79.1094   27.5005 H   0  0  0  0  0  0  0  0  0  0  0  0
   57.8228   78.2287   28.6635 H   0  0  0  0  0  0  0  0  0  0  0  0
   56.7077   80.8386   28.1415 H   0  0  0  0  0  0  0  0  0  0  0  0
   57.0745   80.0080   26.5722 H   0  0  0  0  0  0  0  0  0  0  0  0
   56.4193   77.8569   29.4672 H   0  0  0  0  0  0  0  0  0  0  0  0
   54.3572   76.4425   29.6220 H   0  0  0  0  0  0  0  0  0  0  0  0
   52.4120   75.7510   27.6710 H   0  0  0  0  0  0  0  0  0  0  0  0
   51.9340   76.6770   28.9900 H   0  0  0  0  0  0  0  0  0  0  0  0
   54.6198   79.9344   26.1746 H   0  0  0  0  0  0  0  0  0  0  0  0
   60.0585   81.1368   28.1674 H   0  0  0  0  0  0  0  0  0  0  0  0
   60.9547   82.5010   30.0527 H   0  0  0  0  0  0  0  0  0  0  0  0
   63.0609   82.7686   34.2468 H   0  0  0  0  0  0  0  0  0  0  0  0
   61.6499   83.8831   34.0774 H   0  0  0  0  0  0  0  0  0  0  0  0
   61.9549   83.0539   36.4280 H   0  0  0  0  0  0  0  0  0  0  0  0
   60.3684   82.5720   35.6968 H   0  0  0  0  0  0  0  0  0  0  0  0
  1  2  1  0
  2  3  1  0
  3  4  1  0
  4  5  1  0
  5  6  1  0
  6  7  2  0
  6  8  1  0
  8  9  1  0
  9 10  2  0
 10 11  1  0
 11 12  1  0
 12 13  1  0
 13 14  1  0
 14 15  2  0
 15 16  1  0
 16 17  2  0
 17 18  1  0
 17 19  1  0
 19 20  2  0
 11 21  2  0
 21 22  1  0
  5 23  1  0
 23 24  1  0
 24  2  1  0
 22  8  2  0
 20 14  1  0
  1 25  1  0
  1 26  1  0
  1 27  1  0
  3 28  1  0
  3 29  1  0
  4 30  1  0
  4 31  1  0
  9 32  1  0
 10 33  1  0
 12 34  1  0
 12 35  1  0
 13 36  1  0
 13 37  1  0
 15 38  1  0
 16 39  1  0
 18 40  1  0
 18 41  1  0
 20 42  1  0
 21 43  1  0
 22 44  1  0
 23 45  1  0
 23 46  1  0
 24 47  1  0
 24 48  1  0
M  END
>  <meeko>  (1) 
{"is_sidechain": false}

>  <smiles>  (1) 
CN1CCN(C(=O)c2ccc(CCc3ccc(N)nc3)cc2)CC1

>  <vina_score>  (1) 
-7.810

>  <job_id>  (1) 
0891600411b52b82

$$$$
