
     RDKit          3D

 56 60  0  0  0  0  0  0  0  0999 V2000
   62.0110   83.1600   30.8730 C   0  0  0  0  0  0  0  0  0  0  0  0
   60.5300   83.3920   30.6050 C   0  0  0  0  0  0  0  0  0  0  0  0
   59.7360   82.1190   30.6420 C   0  0  0  0  0  0  0  0  0  0  0  0
   59.6390   81.3290   29.5180 C   0  0  0  0  0  0  0  0  0  0  0  0
   58.9020   80.2080   29.4430 N   0  0  0  0  0  0  0  0  0  0  0  0
   58.2070   79.8560   30.5270 C   0  0  0  0  0  0  0  0  0  0  0  0
   57.4080   78.7320   30.5540 N   0  0  0  0  0  0  0  0  0  0  0  0
   56.3810   78.2980   29.7430 C   0  0  0  0  0  0  0  0  0  0  0  0
   55.7680   77.1190   29.9410 N   0  0  0  0  0  0  0  0  0  0  0  0
   54.7720   76.7690   29.1070 C   0  0  0  0  0  0  0  0  0  0  0  0
   54.3440   77.5630   28.0770 C   0  0  0  0  0  0  0  0  0  0  0  0
   55.0450   78.7500   27.9460 C   0  0  0  0  0  0  0  0  0  0  0  0
   56.0470   79.1390   28.7490 N   0  0  0  0  0  0  0  0  0  0  0  0
   54.6420   79.6430   26.8750 C   0  0  0  0  0  0  0  0  0  0  0  0
   53.5030   79.4590   26.1120 C   0  0  0  0  0  0  0  0  0  0  0  0
   53.4680   80.5560   25.2060 C   0  0  0  0  0  0  0  0  0  0  0  0
   52.4660   80.8730   24.1750 C   0  0  0  0  0  0  0  0  0  0  0  0
   52.9650   81.0980   22.9160 N   0  0  0  0  0  0  0  0  0  0  0  0
   51.2600   80.9820   24.3760 O   0  0  0  0  0  0  0  0  0  0  0  0
   54.5360   81.3540   25.4010 N   0  0  0  0  0  0  0  0  0  0  0  0
   55.2180   80.7910   26.4200 N   0  0  0  0  0  0  0  0  0  0  0  0
   56.4240   81.4300   26.8910 C   0  0  0  0  0  0  0  0  0  0  0  0
   52.5600   78.3380   26.3940 C   0  0  0  0  0  0  0  0  0  0  0  0
   53.2770   77.1540   27.0940 C   0  0  0  0  0  0  0  0  0  0  0  0
   58.2290   80.5630   31.6690 N   0  0  0  0  0  0  0  0  0  0  0  0
   59.0010   81.6660   31.7250 C   0  0  0  0  0  0  0  0  0  0  0  0
   58.9750   82.3450   32.9610 N   0  0  0  0  0  0  0  0  0  0  0  0
   59.9010   82.1510   34.0210 C   0  0  0  0  0  0  0  0  0  0  0  0
   60.8120   83.1370   34.4220 C   0  0  0  0  0  0  0  0  0  0  0  0
   61.7530   82.8710   35.4190 C   0  0  0  0  0  0  0  0  0  0  0  0
   61.8090   81.6100   36.0090 C   0  0  0  0  0  0  0  0  0  0  0  0
   60.9310   80.6110   35.5950 C   0  0  0  0  0  0  0  0  0  0  0  0
   59.9910   80.8780   34.5990 C   0  0  0  0  0  0  0  0  0  0  0  0
   62.1873   83.1324   31.9584 H   0  0  0  0  0  0  0  0  0  0  0  0
   62.3188   82.2027   30.4271 H   0  0  0  0  0  0  0  0  0  0  0  0
   62.5968   83.9773   30.4271 H   0  0  0  0  0  0  0  0  0  0  0  0
   60.1355   84.0768   31.3701 H   0  0  0  0  0  0  0  0  0  0  0  0
   60.4344   83.8179   29.5953 H   0  0  0  0  0  0  0  0  0  0  0  0
   60.2013   81.6356   28.6237 H   0  0  0  0  0  0  0  0  0  0  0  0
   57.6290   78.1020   31.3000 H   0  0  0  0  0  0  0  0  0  0  0  0
   54.2778   75.7983   29.2600 H   0  0  0  0  0  0  0  0  0  0  0  0
   53.9240   81.4040   22.8260 H   0  0  0  0  0  0  0  0  0  0  0  0
   52.2930   81.5060   22.2800 H   0  0  0  0  0  0  0  0  0  0  0  0
   56.4313   81.4339   27.9910 H   0  0  0  0  0  0  0  0  0  0  0  0
   57.3003   80.8779   26.5204 H   0  0  0  0  0  0  0  0  0  0  0  0
   56.4592   82.4651   26.5204 H   0  0  0  0  0  0  0  0  0  0  0  0
   51.7543   78.7045   27.0472 H   0  0  0  0  0  0  0  0  0  0  0  0
   52.1551   77.9786   25.4364 H   0  0  0  0  0  0  0  0  0  0  0  0
   52.5208   76.5646   27.6332 H   0  0  0  0  0  0  0  0  0  0  0  0
   53.7833   76.5824   26.3022 H   0  0  0  0  0  0  0  0  0  0  0  0
   58.0550   82.1070   33.3370 H   0  0  0  0  0  0  0  0  0  0  0  0
   60.7858   84.1291   33.9475 H   0  0  0  0  0  0  0  0  0  0  0  0
   62.4512   83.6584   35.7391 H   0  0  0  0  0  0  0  0  0  0  0  0
   62.5450   81.4038   36.8001 H   0  0  0  0  0  0  0  0  0  0  0  0
   60.9787   79.6120   36.0531 H   0  0  0  0  0  0  0  0  0  0  0  0
   59.3127   80.0796   34.2637 H   0  0  0  0  0  0  0  0  0  0  0  0
  1  2  1  0
  2  3  1  0
  3  4  2  0
  4  5  1  0
  5  6  2  0
  6  7  1  0
  7  8  1  0
  8  9  2  0
  9 10  1  0
 10 11  2  0
 11 12  1  0
 12 13  2  0
 12 14  1  0
 14 15  2  0
 15 16  1  0
 16 17  1  0
 17 18  1  0
 17 19  2  0
 16 20  2  0
 20 21  1  0
 21 22  1  0
 15 23  1  0
 23 24  1  0
  6 25  1  0
 25 26  2  0
 26 27  1  0
 27 28  1  0
 28 29  2  0
 29 30  1  0
 30 31  2  0
 31 32  1  0
 32 33  2  0
 26  3  1  0
 33 28  1  0
 13  8  1  0
 21 14  1  0
 24 11  1  0
  1 34  1  0
  1 35  1  0
  1 36  1  0
  2 37  1  0
  2 38  1  0
  4 39  1  0
  7 40  1  0
 10 41  1  0
 18 42  1  0
 18 43  1  0
 22 44  1  0
 22 45  1  0
 22 46  1  0
 23 47  1  0
 23 48  1  0
 24 49  1  0
 24 50  1  0
 27 51  1  0
 29 52  1  0
 30 53  1  0
 31 54  1  0
 32 55  1  0
 33 56  1  0
M  END
>  <meeko>  (1) 
{"is_sidechain": false}

>  <smiles>  (1) 
CCc1cnc(Nc2ncc3c(n2)-c2c(c(C(N)=O)nn2C)CC3)nc1Nc1ccccc1

>  <vina_score>  (1) 
-8.809

>  <job_id>  (1) 
08bcd332942ca454

$$$$
