
     RDKit          3D

 64 68  0  0  0  0  0  0  0  0999 V2000
   65.9200   84.9300   30.1150 C   0  0  0  0  0  0  0  0  0  0  0  0
   65.3100   83.7350   30.7570 C   0  0  0  0  0  0  0  0  0  0  0  0
   65.7770   82.5110   30.6400 N   0  0  0  0  0  0  0  0  0  0  0  0
   64.9610   81.7320   31.4030 C   0  0  0  0  0  0  0  0  0  0  0  0
   63.9550   82.4680   32.0000 C   0  0  0  0  0  0  0  0  0  0  0  0
   62.9030   81.9910   32.8830 C   0  0  0  0  0  0  0  0  0  0  0  0
   63.0620   81.9830   34.2490 C   0  0  0  0  0  0  0  0  0  0  0  0
   61.9780   81.5380   34.9590 C   0  0  0  0  0  0  0  0  0  0  0  0
   60.8280   81.1410   34.3850 N   0  0  0  0  0  0  0  0  0  0  0  0
   60.7530   81.1970   33.0470 C   0  0  0  0  0  0  0  0  0  0  0  0
   59.6100   80.8140   32.3680 N   0  0  0  0  0  0  0  0  0  0  0  0
   59.1390   80.9890   31.0790 C   0  0  0  0  0  0  0  0  0  0  0  0
   58.8820   82.2180   30.5110 C   0  0  0  0  0  0  0  0  0  0  0  0
   58.4070   82.2200   29.2190 C   0  0  0  0  0  0  0  0  0  0  0  0
   58.1900   81.1040   28.5080 N   0  0  0  0  0  0  0  0  0  0  0  0
   58.4830   79.9500   29.1290 C   0  0  0  0  0  0  0  0  0  0  0  0
   58.1850   78.4310   28.2630 S   0  0  0  0  0  0  0  0  0  0  0  0
   56.4220   78.3110   28.4490 C   0  0  0  0  0  0  0  0  0  0  0  0
   55.8600   77.2280   29.0820 C   0  0  0  0  0  0  0  0  0  0  0  0
   54.4920   77.2300   29.1410 C   0  0  0  0  0  0  0  0  0  0  0  0
   53.7300   78.2040   28.6150 N   0  0  0  0  0  0  0  0  0  0  0  0
   54.3570   79.2200   28.0050 C   0  0  0  0  0  0  0  0  0  0  0  0
   53.6610   80.2780   27.4260 N   0  0  0  0  0  0  0  0  0  0  0  0
   53.2930   80.6050   26.1180 C   0  0  0  0  0  0  0  0  0  0  0  0
   52.9140   81.8880   25.7110 C   0  0  0  0  0  0  0  0  0  0  0  0
   52.5480   82.1550   24.3830 C   0  0  0  0  0  0  0  0  0  0  0  0
   52.5460   81.1290   23.4340 C   0  0  0  0  0  0  0  0  0  0  0  0
   52.1640   81.3580   22.0150 C   0  0  0  0  0  0  0  0  0  0  0  0
   50.9260   80.9340   21.6190 N   0  0  0  0  0  0  0  0  0  0  0  0
   52.9360   81.8710   21.2150 O   0  0  0  0  0  0  0  0  0  0  0  0
   52.9360   79.8450   23.8210 C   0  0  0  0  0  0  0  0  0  0  0  0
   53.3000   79.5890   25.1480 C   0  0  0  0  0  0  0  0  0  0  0  0
   55.6910   79.3010   27.8980 N   0  0  0  0  0  0  0  0  0  0  0  0
   58.9320   79.8500   30.3920 N   0  0  0  0  0  0  0  0  0  0  0  0
   61.7670   81.6120   32.2720 N   0  0  0  0  0  0  0  0  0  0  0  0
   64.1730   83.7630   31.5560 N   0  0  0  0  0  0  0  0  0  0  0  0
   63.3720   84.9660   31.7930 C   0  0  0  0  0  0  0  0  0  0  0  0
   61.9280   84.8870   31.2950 C   0  0  0  0  0  0  0  0  0  0  0  0
   63.4660   85.4550   33.2380 C   0  0  0  0  0  0  0  0  0  0  0  0
   66.2739   85.6233   30.8922 H   0  0  0  0  0  0  0  0  0  0  0  0
   66.7686   84.6169   29.4890 H   0  0  0  0  0  0  0  0  0  0  0  0
   65.1687   85.4336   29.4890 H   0  0  0  0  0  0  0  0  0  0  0  0
   65.0875   80.6466   31.5291 H   0  0  0  0  0  0  0  0  0  0  0  0
   63.9923   82.3102   34.7364 H   0  0  0  0  0  0  0  0  0  0  0  0
   62.0520   81.5036   36.0560 H   0  0  0  0  0  0  0  0  0  0  0  0
   58.9950   80.2620   32.9460 H   0  0  0  0  0  0  0  0  0  0  0  0
   59.0487   83.1540   31.0644 H   0  0  0  0  0  0  0  0  0  0  0  0
   58.1940   83.1892   28.7443 H   0  0  0  0  0  0  0  0  0  0  0  0
   56.4666   76.4168   29.5110 H   0  0  0  0  0  0  0  0  0  0  0  0
   53.9907   76.3907   29.6452 H   0  0  0  0  0  0  0  0  0  0  0  0
   53.3670   80.9080   28.1580 H   0  0  0  0  0  0  0  0  0  0  0  0
   52.9026   82.7051   26.4474 H   0  0  0  0  0  0  0  0  0  0  0  0
   52.2617   83.1753   24.0879 H   0  0  0  0  0  0  0  0  0  0  0  0
   50.3930   80.2630   22.1530 H   0  0  0  0  0  0  0  0  0  0  0  0
   50.7460   80.9800   20.6230 H   0  0  0  0  0  0  0  0  0  0  0  0
   52.9572   79.0320   23.0803 H   0  0  0  0  0  0  0  0  0  0  0  0
   53.5979   78.5705   25.4375 H   0  0  0  0  0  0  0  0  0  0  0  0
   63.8378   85.7335   31.1574 H   0  0  0  0  0  0  0  0  0  0  0  0
   61.2447   84.8496   32.1562 H   0  0  0  0  0  0  0  0  0  0  0  0
   61.7013   85.7741   30.6853 H   0  0  0  0  0  0  0  0  0  0  0  0
   61.7995   83.9805   30.6853 H   0  0  0  0  0  0  0  0  0  0  0  0
   63.3035   84.6094   33.9225 H   0  0  0  0  0  0  0  0  0  0  0  0
   64.4631   85.8842   33.4157 H   0  0  0  0  0  0  0  0  0  0  0  0
   62.6991   86.2233   33.4157 H   0  0  0  0  0  0  0  0  0  0  0  0
  1  2  1  0
  2  3  2  0
  3  4  1  0
  4  5  2  0
  5  6  1  0
  6  7  1  0
  7  8  2  0
  8  9  1  0
  9 10  2  0
 10 11  1  0
 11 12  1  0
 12 13  1  0
 13 14  2  0
 14 15  1  0
 15 16  2  0
 16 17  1  0
 17 18  1  0
 18 19  1  0
 19 20  2  0
 20 21  1  0
 21 22  2  0
 22 23  1  0
 23 24  1  0
 24 25  1  0
 25 26  2  0
 26 27  1  0
 27 28  1  0
 28 29  1  0
 28 30  2  0
 27 31  2  0
 31 32  1  0
 22 33  1  0
 16 34  1  0
 10 35  1  0
  5 36  1  0
 36 37  1  0
 37 38  1  0
 37 39  1  0
 36  2  1  0
 35  6  2  0
 34 12  2  0
 33 18  2  0
 32 24  2  0
  1 40  1  0
  1 41  1  0
  1 42  1  0
  4 43  1  0
  7 44  1  0
  8 45  1  0
 11 46  1  0
 13 47  1  0
 14 48  1  0
 19 49  1  0
 20 50  1  0
 23 51  1  0
 25 52  1  0
 26 53  1  0
 29 54  1  0
 29 55  1  0
 31 56  1  0
 32 57  1  0
 37 58  1  0
 38 59  1  0
 38 60  1  0
 38 61  1  0
 39 62  1  0
 39 63  1  0
 39 64  1  0
M  END
>  <meeko>  (1) 
{"is_sidechain": false}

>  <smiles>  (1) 
Cc1ncc(-c2ccnc(Nc3ccnc(Sc4ccnc(Nc5ccc(C(N)=O)cc5)n4)n3)n2)n1C(C)C

>  <vina_score>  (1) 
-8.692

>  <job_id>  (1) 
08e143cbf606efeb

$$$$
