
     RDKit          3D

 35 36  0  0  0  0  0  0  0  0999 V2000
   62.2810   83.5760   31.0470 C   0  0  0  0  0  0  0  0  0  0  0  0
   60.8760   83.0940   30.7870 C   0  0  0  0  0  0  0  0  0  0  0  0
   59.9200   83.8480   30.9300 O   0  0  0  0  0  0  0  0  0  0  0  0
   60.8390   81.7610   30.4200 N   0  0  0  0  0  0  0  0  0  0  0  0
   59.7020   80.9870   30.1110 C   0  0  0  0  0  0  0  0  0  0  0  0
   58.9580   80.2810   31.0540 C   0  0  0  0  0  0  0  0  0  0  0  0
   57.8390   79.5310   30.6620 C   0  0  0  0  0  0  0  0  0  0  0  0
   57.4350   79.4700   29.3210 C   0  0  0  0  0  0  0  0  0  0  0  0
   56.2610   78.6820   28.9150 C   0  0  0  0  0  0  0  0  0  0  0  0
   55.4370   79.1040   27.8560 C   0  0  0  0  0  0  0  0  0  0  0  0
   54.3220   78.3580   27.4650 C   0  0  0  0  0  0  0  0  0  0  0  0
   54.0160   77.1780   28.1440 C   0  0  0  0  0  0  0  0  0  0  0  0
   52.6080   76.2170   27.6450 S   0  0  0  0  0  0  0  0  0  0  0  0
   52.5370   76.4820   25.8920 C   0  0  0  0  0  0  0  0  0  0  0  0
   51.4320   76.8210   28.2420 O   0  0  0  0  0  0  0  0  0  0  0  0
   52.9260   74.8210   27.8770 O   0  0  0  0  0  0  0  0  0  0  0  0
   54.8250   76.7250   29.1870 C   0  0  0  0  0  0  0  0  0  0  0  0
   55.9370   77.4800   29.5700 C   0  0  0  0  0  0  0  0  0  0  0  0
   58.1900   80.1860   28.3810 C   0  0  0  0  0  0  0  0  0  0  0  0
   59.3090   80.9330   28.7700 C   0  0  0  0  0  0  0  0  0  0  0  0
   62.4535   83.6352   32.1318 H   0  0  0  0  0  0  0  0  0  0  0  0
   62.9986   82.8727   30.5994 H   0  0  0  0  0  0  0  0  0  0  0  0
   62.4158   84.5718   30.5994 H   0  0  0  0  0  0  0  0  0  0  0  0
   61.7270   81.2780   30.3760 H   0  0  0  0  0  0  0  0  0  0  0  0
   59.2502   80.3119   32.1140 H   0  0  0  0  0  0  0  0  0  0  0  0
   57.2669   78.9795   31.4226 H   0  0  0  0  0  0  0  0  0  0  0  0
   55.6746   80.0382   27.3260 H   0  0  0  0  0  0  0  0  0  0  0  0
   53.6916   78.6977   26.6300 H   0  0  0  0  0  0  0  0  0  0  0  0
   52.2571   77.5265   25.6901 H   0  0  0  0  0  0  0  0  0  0  0  0
   53.5225   76.2744   25.4496 H   0  0  0  0  0  0  0  0  0  0  0  0
   51.7874   75.8095   25.4496 H   0  0  0  0  0  0  0  0  0  0  0  0
   54.5896   75.7824   29.7029 H   0  0  0  0  0  0  0  0  0  0  0  0
   56.5699   77.1282   30.3981 H   0  0  0  0  0  0  0  0  0  0  0  0
   57.8986   80.1605   27.3206 H   0  0  0  0  0  0  0  0  0  0  0  0
   59.8854   81.4836   28.0120 H   0  0  0  0  0  0  0  0  0  0  0  0
  1  2  1  0
  2  3  2  0
  2  4  1  0
  4  5  1  0
  5  6  1  0
  6  7  2  0
  7  8  1  0
  8  9  1  0
  9 10  1  0
 10 11  2  0
 11 12  1  0
 12 13  1  0
 13 14  1  0
 13 15  2  0
 13 16  2  0
 12 17  2  0
 17 18  1  0
  8 19  2  0
 19 20  1  0
 20  5  2  0
 18  9  2  0
  1 21  1  0
  1 22  1  0
  1 23  1  0
  4 24  1  0
  6 25  1  0
  7 26  1  0
 10 27  1  0
 11 28  1  0
 14 29  1  0
 14 30  1  0
 14 31  1  0
 17 32  1  0
 18 33  1  0
 19 34  1  0
 20 35  1  0
M  END
>  <meeko>  (1) 
{"is_sidechain": false}

>  <smiles>  (1) 
CC(=O)Nc1ccc(-c2ccc(S(C)(=O)=O)cc2)cc1

>  <vina_score>  (1) 
-7.454

>  <job_id>  (1) 
08fbd4f91909523a

$$$$
