
     RDKit          3D

 35 36  0  0  0  0  0  0  0  0999 V2000
   63.0620   82.4930   31.0200 C   0  0  0  0  0  0  0  0  0  0  0  0
   61.9400   81.7310   30.5290 N   0  0  0  0  0  0  0  0  0  0  0  0
   60.6770   82.2900   30.4990 C   0  0  0  0  0  0  0  0  0  0  0  0
   60.4450   83.4530   30.8080 O   0  0  0  0  0  0  0  0  0  0  0  0
   59.5650   81.3820   30.1020 C   0  0  0  0  0  0  0  0  0  0  0  0
   59.1950   81.2010   28.7650 C   0  0  0  0  0  0  0  0  0  0  0  0
   58.1420   80.3390   28.4400 C   0  0  0  0  0  0  0  0  0  0  0  0
   57.4310   79.6510   29.4380 C   0  0  0  0  0  0  0  0  0  0  0  0
   56.3210   78.7480   29.0910 C   0  0  0  0  0  0  0  0  0  0  0  0
   55.4110   79.0780   28.0750 C   0  0  0  0  0  0  0  0  0  0  0  0
   54.3550   78.2220   27.7440 C   0  0  0  0  0  0  0  0  0  0  0  0
   54.1840   77.0110   28.4210 C   0  0  0  0  0  0  0  0  0  0  0  0
   53.0360   76.0920   28.0750 C   0  0  0  0  0  0  0  0  0  0  0  0
   52.5910   76.1820   26.6360 C   0  0  0  0  0  0  0  0  0  0  0  0
   52.5600   77.1600   25.9090 O   0  0  0  0  0  0  0  0  0  0  0  0
   52.1850   74.9820   26.1640 O   0  0  0  0  0  0  0  0  0  0  0  0
   55.0800   76.6760   29.4420 C   0  0  0  0  0  0  0  0  0  0  0  0
   56.1360   77.5330   29.7700 C   0  0  0  0  0  0  0  0  0  0  0  0
   57.8050   79.8570   30.7760 C   0  0  0  0  0  0  0  0  0  0  0  0
   58.8570   80.7170   31.1070 C   0  0  0  0  0  0  0  0  0  0  0  0
   63.0552   82.4884   32.1200 H   0  0  0  0  0  0  0  0  0  0  0  0
   63.9978   82.0429   30.6572 H   0  0  0  0  0  0  0  0  0  0  0  0
   62.9886   83.5289   30.6572 H   0  0  0  0  0  0  0  0  0  0  0  0
   62.0220   80.7240   30.5260 H   0  0  0  0  0  0  0  0  0  0  0  0
   59.7324   81.7368   27.9687 H   0  0  0  0  0  0  0  0  0  0  0  0
   57.8658   80.1973   27.3847 H   0  0  0  0  0  0  0  0  0  0  0  0
   55.5300   80.0258   27.5296 H   0  0  0  0  0  0  0  0  0  0  0  0
   53.6538   78.5041   26.9448 H   0  0  0  0  0  0  0  0  0  0  0  0
   53.3486   75.0568   28.2764 H   0  0  0  0  0  0  0  0  0  0  0  0
   52.1810   76.4037   28.6929 H   0  0  0  0  0  0  0  0  0  0  0  0
   51.2060   75.0470   26.1820 H   0  0  0  0  0  0  0  0  0  0  0  0
   54.9531   75.7314   29.9911 H   0  0  0  0  0  0  0  0  0  0  0  0
   56.8327   77.2504   30.5729 H   0  0  0  0  0  0  0  0  0  0  0  0
   57.2617   79.3335   31.5765 H   0  0  0  0  0  0  0  0  0  0  0  0
   59.1282   80.8706   32.1619 H   0  0  0  0  0  0  0  0  0  0  0  0
  1  2  1  0
  2  3  1  0
  3  4  2  0
  3  5  1  0
  5  6  1  0
  6  7  2  0
  7  8  1  0
  8  9  1  0
  9 10  1  0
 10 11  2  0
 11 12  1  0
 12 13  1  0
 13 14  1  0
 14 15  2  0
 14 16  1  0
 12 17  2  0
 17 18  1  0
  8 19  2  0
 19 20  1  0
 20  5  2  0
 18  9  2  0
  1 21  1  0
  1 22  1  0
  1 23  1  0
  2 24  1  0
  6 25  1  0
  7 26  1  0
 10 27  1  0
 11 28  1  0
 13 29  1  0
 13 30  1  0
 16 31  1  0
 17 32  1  0
 18 33  1  0
 19 34  1  0
 20 35  1  0
M  END
>  <meeko>  (1) 
{"is_sidechain": false}

>  <smiles>  (1) 
CNC(=O)c1ccc(-c2ccc(CC(=O)O)cc2)cc1

>  <vina_score>  (1) 
-7.946

>  <job_id>  (1) 
0908c256563d4181

$$$$
