
     RDKit          3D

 51 52  0  0  0  0  0  0  0  0999 V2000
   62.0830   82.5780   31.5020 C   0  0  0  0  0  0  0  0  0  0  0  0
   61.2690   83.7760   31.0200 C   0  0  0  0  0  0  0  0  0  0  0  0
   61.9090   85.0780   31.4890 C   0  0  0  0  0  0  0  0  0  0  0  0
   59.5650   83.6190   31.5750 S   0  0  0  0  0  0  0  0  0  0  0  0
   59.5730   83.3840   33.0080 O   0  0  0  0  0  0  0  0  0  0  0  0
   58.7920   84.7090   31.0130 O   0  0  0  0  0  0  0  0  0  0  0  0
   58.9940   82.1100   30.8250 C   0  0  0  0  0  0  0  0  0  0  0  0
   58.9890   81.9950   29.4370 C   0  0  0  0  0  0  0  0  0  0  0  0
   58.5480   80.8060   28.8500 C   0  0  0  0  0  0  0  0  0  0  0  0
   58.1200   79.7160   29.6280 C   0  0  0  0  0  0  0  0  0  0  0  0
   57.6790   78.5620   28.9700 N   0  0  0  0  0  0  0  0  0  0  0  0
   56.4300   77.9940   28.7480 C   0  0  0  0  0  0  0  0  0  0  0  0
   56.1140   76.7630   29.1700 N   0  0  0  0  0  0  0  0  0  0  0  0
   54.8790   76.2990   28.8940 C   0  0  0  0  0  0  0  0  0  0  0  0
   53.9290   77.0220   28.2200 C   0  0  0  0  0  0  0  0  0  0  0  0
   52.5790   76.4920   27.9220 C   0  0  0  0  0  0  0  0  0  0  0  0
   52.3930   75.2250   28.3930 F   0  0  0  0  0  0  0  0  0  0  0  0
   51.5800   77.2320   28.4750 F   0  0  0  0  0  0  0  0  0  0  0  0
   52.3120   76.4240   26.5890 F   0  0  0  0  0  0  0  0  0  0  0  0
   54.3310   78.2770   27.8530 C   0  0  0  0  0  0  0  0  0  0  0  0
   53.4610   79.0480   27.1190 O   0  0  0  0  0  0  0  0  0  0  0  0
   54.0800   80.0490   26.2760 C   0  0  2  0  0  0  0  0  0  0  0  0
   53.6800   81.3890   26.8950 C   0  0  0  0  0  0  0  0  0  0  0  0
   53.5710   79.8800   24.8220 C   0  0  1  0  0  0  0  0  0  0  0  0
   53.6850   78.4590   24.2850 C   0  0  0  0  0  0  0  0  0  0  0  0
   52.1830   80.2300   24.7300 O   0  0  0  0  0  0  0  0  0  0  0  0
   55.5640   78.7700   28.0760 N   0  0  0  0  0  0  0  0  0  0  0  0
   58.1510   79.8570   31.0200 C   0  0  0  0  0  0  0  0  0  0  0  0
   58.5920   81.0410   31.6230 C   0  0  0  0  0  0  0  0  0  0  0  0
   62.0945   82.5611   32.6018 H   0  0  0  0  0  0  0  0  0  0  0  0
   61.6277   81.6500   31.1258 H   0  0  0  0  0  0  0  0  0  0  0  0
   63.1134   82.6596   31.1258 H   0  0  0  0  0  0  0  0  0  0  0  0
   61.2622   83.7974   29.9202 H   0  0  0  0  0  0  0  0  0  0  0  0
   61.9222   85.1048   32.5886 H   0  0  0  0  0  0  0  0  0  0  0  0
   62.9393   85.1381   31.1084 H   0  0  0  0  0  0  0  0  0  0  0  0
   61.3272   85.9305   31.1084 H   0  0  0  0  0  0  0  0  0  0  0  0
   59.3288   82.8318   28.8091 H   0  0  0  0  0  0  0  0  0  0  0  0
   58.5354   80.7209   27.7534 H   0  0  0  0  0  0  0  0  0  0  0  0
   58.3950   77.9580   28.5900 H   0  0  0  0  0  0  0  0  0  0  0  0
   54.6189   75.2838   29.2281 H   0  0  0  0  0  0  0  0  0  0  0  0
   55.1757   79.9675   26.2234 H   0  0  0  0  0  0  0  0  0  0  0  0
   53.7042   81.3080   27.9918 H   0  0  0  0  0  0  0  0  0  0  0  0
   54.3847   82.1683   26.5692 H   0  0  0  0  0  0  0  0  0  0  0  0
   52.6634   81.6545   26.5692 H   0  0  0  0  0  0  0  0  0  0  0  0
   54.2159   80.5425   24.2260 H   0  0  0  0  0  0  0  0  0  0  0  0
   53.7417   77.7526   25.1263 H   0  0  0  0  0  0  0  0  0  0  0  0
   52.8026   78.2274   23.6705 H   0  0  0  0  0  0  0  0  0  0  0  0
   54.5931   78.3710   23.6705 H   0  0  0  0  0  0  0  0  0  0  0  0
   51.9600   80.2470   23.7770 H   0  0  0  0  0  0  0  0  0  0  0  0
   57.8220   79.0201   31.6535 H   0  0  0  0  0  0  0  0  0  0  0  0
   58.6209   81.1267   32.7193 H   0  0  0  0  0  0  0  0  0  0  0  0
  1  2  1  0
  2  3  1  0
  2  4  1  0
  4  5  2  0
  4  6  2  0
  4  7  1  0
  7  8  1  0
  8  9  2  0
  9 10  1  0
 10 11  1  0
 11 12  1  0
 12 13  2  0
 13 14  1  0
 14 15  2  0
 15 16  1  0
 16 17  1  0
 16 18  1  0
 16 19  1  0
 15 20  1  0
 20 21  1  0
 21 22  1  0
 22 23  1  0
 22 24  1  0
 24 25  1  0
 24 26  1  0
 20 27  2  0
 10 28  2  0
 28 29  1  0
 29  7  2  0
 27 12  1  0
  1 30  1  0
  1 31  1  0
  1 32  1  0
  2 33  1  0
  3 34  1  0
  3 35  1  0
  3 36  1  0
  8 37  1  0
  9 38  1  0
 11 39  1  0
 14 40  1  0
 22 41  1  6
 23 42  1  0
 23 43  1  0
 23 44  1  0
 24 45  1  6
 25 46  1  0
 25 47  1  0
 25 48  1  0
 26 49  1  0
 28 50  1  0
 29 51  1  0
M  END
>  <meeko>  (1) 
{"is_sidechain": false}

>  <smiles>  (1) 
CC(C)S(=O)(=O)c1ccc(Nc2ncc(C(F)(F)F)c(O[C@H](C)[C@@H](C)O)n2)cc1

>  <vina_score>  (1) 
-8.097

>  <job_id>  (1) 
090d9bb52b2d782a

$$$$
