
     RDKit          3D

 38 39  0  0  0  0  0  0  0  0999 V2000
   52.1740   76.0450   27.3970 C   0  0  0  0  0  0  0  0  0  0  0  0
   53.3860   76.6400   28.0150 C   0  0  0  0  0  0  0  0  0  0  0  0
   54.0720   76.0480   28.9700 N   0  0  0  0  0  0  0  0  0  0  0  0
   55.1250   76.8730   29.2460 C   0  0  0  0  0  0  0  0  0  0  0  0
   55.1040   77.9980   28.4500 C   0  0  0  0  0  0  0  0  0  0  0  0
   55.9820   79.0650   28.3470 N   0  0  0  0  0  0  0  0  0  0  0  0
   57.3450   78.9070   28.1450 C   0  0  0  0  0  0  0  0  0  0  0  0
   57.9390   77.8380   28.0200 O   0  0  0  0  0  0  0  0  0  0  0  0
   58.0990   80.2260   28.0190 C   0  0  0  0  0  0  0  0  0  0  0  0
   58.7690   80.6880   29.2920 C   0  0  0  0  0  0  0  0  0  0  0  0
   58.4210   80.1160   30.5270 C   0  0  0  0  0  0  0  0  0  0  0  0
   59.0280   80.5510   31.7080 C   0  0  0  0  0  0  0  0  0  0  0  0
   59.9900   81.5590   31.6670 C   0  0  0  0  0  0  0  0  0  0  0  0
   60.3410   82.1180   30.4450 C   0  0  0  0  0  0  0  0  0  0  0  0
   61.2630   83.0880   30.4030 F   0  0  0  0  0  0  0  0  0  0  0  0
   59.7450   81.6930   29.2610 C   0  0  0  0  0  0  0  0  0  0  0  0
   53.9480   77.8640   27.6900 N   0  0  0  0  0  0  0  0  0  0  0  0
   53.4520   78.8430   26.7230 C   0  0  0  0  0  0  0  0  0  0  0  0
   53.5360   80.2670   27.2700 C   0  0  0  0  0  0  0  0  0  0  0  0
   54.0630   78.7310   25.3240 C   0  0  0  0  0  0  0  0  0  0  0  0
   51.4873   75.7079   28.1874 H   0  0  0  0  0  0  0  0  0  0  0  0
   51.6726   76.7994   26.7729 H   0  0  0  0  0  0  0  0  0  0  0  0
   52.4642   75.1869   26.7729 H   0  0  0  0  0  0  0  0  0  0  0  0
   55.8921   76.6659   30.0067 H   0  0  0  0  0  0  0  0  0  0  0  0
   55.6300   80.0050   28.4520 H   0  0  0  0  0  0  0  0  0  0  0  0
   58.8733   80.1069   27.2468 H   0  0  0  0  0  0  0  0  0  0  0  0
   57.3511   80.9910   27.7633 H   0  0  0  0  0  0  0  0  0  0  0  0
   57.6641   79.3187   30.5646 H   0  0  0  0  0  0  0  0  0  0  0  0
   58.7467   80.0980   32.6701 H   0  0  0  0  0  0  0  0  0  0  0  0
   60.4670   81.9087   32.5945 H   0  0  0  0  0  0  0  0  0  0  0  0
   60.0397   82.1453   28.3026 H   0  0  0  0  0  0  0  0  0  0  0  0
   52.3909   78.5894   26.5823 H   0  0  0  0  0  0  0  0  0  0  0  0
   53.5343   80.2381   28.3696 H   0  0  0  0  0  0  0  0  0  0  0  0
   54.4637   80.7412   26.9171 H   0  0  0  0  0  0  0  0  0  0  0  0
   52.6705   80.8470   26.9171 H   0  0  0  0  0  0  0  0  0  0  0  0
   55.1417   78.5333   25.4098 H   0  0  0  0  0  0  0  0  0  0  0  0
   53.5813   77.9062   24.7784 H   0  0  0  0  0  0  0  0  0  0  0  0
   53.9051   79.6730   24.7784 H   0  0  0  0  0  0  0  0  0  0  0  0
  1  2  1  0
  2  3  2  0
  3  4  1  0
  4  5  2  0
  5  6  1  0
  6  7  1  0
  7  8  2  0
  7  9  1  0
  9 10  1  0
 10 11  2  0
 11 12  1  0
 12 13  2  0
 13 14  1  0
 14 15  1  0
 14 16  2  0
  5 17  1  0
 17 18  1  0
 18 19  1  0
 18 20  1  0
 17  2  1  0
 16 10  1  0
  1 21  1  0
  1 22  1  0
  1 23  1  0
  4 24  1  0
  6 25  1  0
  9 26  1  0
  9 27  1  0
 11 28  1  0
 12 29  1  0
 13 30  1  0
 16 31  1  0
 18 32  1  0
 19 33  1  0
 19 34  1  0
 19 35  1  0
 20 36  1  0
 20 37  1  0
 20 38  1  0
M  END
>  <meeko>  (1) 
{"is_sidechain": false}

>  <smiles>  (1) 
Cc1ncc(NC(=O)Cc2cccc(F)c2)n1C(C)C

>  <vina_score>  (1) 
-7.305

>  <job_id>  (1) 
0927c878eb0ce635

$$$$
