
     RDKit          3D

 41 42  0  0  0  0  0  0  0  0999 V2000
   54.8090   77.6070   29.1020 C   0  0  0  0  0  0  0  0  0  0  0  0
   55.2880   78.6480   28.1210 C   0  0  0  0  0  0  0  0  0  0  0  0
   54.4210   79.0080   27.0670 C   0  0  0  0  0  0  0  0  0  0  0  0
   54.7670   79.9860   26.1280 C   0  0  0  0  0  0  0  0  0  0  0  0
   53.8540   80.3560   25.0350 C   0  0  0  0  0  0  0  0  0  0  0  0
   53.5070   81.7000   24.8070 C   0  0  0  0  0  0  0  0  0  0  0  0
   52.6420   82.0570   23.7700 C   0  0  0  0  0  0  0  0  0  0  0  0
   52.1070   81.0620   22.9490 C   0  0  0  0  0  0  0  0  0  0  0  0
   51.0150   81.5200   21.6320 S   0  0  0  0  0  0  0  0  0  0  0  0
   49.5150   81.1160   22.2850 N   0  0  0  0  0  0  0  0  0  0  0  0
   51.0600   82.9530   21.4740 O   0  0  0  0  0  0  0  0  0  0  0  0
   51.2130   80.6070   20.5290 O   0  0  0  0  0  0  0  0  0  0  0  0
   52.4450   79.7220   23.1430 C   0  0  0  0  0  0  0  0  0  0  0  0
   53.3100   79.3760   24.1850 C   0  0  0  0  0  0  0  0  0  0  0  0
   56.0100   80.6060   26.2760 C   0  0  0  0  0  0  0  0  0  0  0  0
   56.8800   80.2480   27.3160 C   0  0  0  0  0  0  0  0  0  0  0  0
   56.5650   79.2460   28.2400 C   0  0  0  0  0  0  0  0  0  0  0  0
   57.3800   78.9030   29.3110 N   0  0  0  0  0  0  0  0  0  0  0  0
   58.5030   79.6470   29.8840 C   0  0  0  0  0  0  0  0  0  0  0  0
   58.1840   80.2330   31.2540 C   0  0  0  0  0  0  0  0  0  0  0  0
   59.1110   80.6490   28.9100 C   0  0  0  0  0  0  0  0  0  0  0  0
   54.9745   77.9667   30.1283 H   0  0  0  0  0  0  0  0  0  0  0  0
   53.7357   77.4230   28.9465 H   0  0  0  0  0  0  0  0  0  0  0  0
   55.3675   76.6722   28.9465 H   0  0  0  0  0  0  0  0  0  0  0  0
   53.4461   78.5057   26.9814 H   0  0  0  0  0  0  0  0  0  0  0  0
   53.9241   82.4835   25.4567 H   0  0  0  0  0  0  0  0  0  0  0  0
   52.3844   83.1130   23.6014 H   0  0  0  0  0  0  0  0  0  0  0  0
   49.1150   80.3500   21.7400 H   0  0  0  0  0  0  0  0  0  0  0  0
   49.5560   80.8960   23.2800 H   0  0  0  0  0  0  0  0  0  0  0  0
   52.0343   78.9449   22.4817 H   0  0  0  0  0  0  0  0  0  0  0  0
   53.5699   78.3189   24.3431 H   0  0  0  0  0  0  0  0  0  0  0  0
   56.3117   81.3887   25.5644 H   0  0  0  0  0  0  0  0  0  0  0  0
   57.8424   80.7727   27.4083 H   0  0  0  0  0  0  0  0  0  0  0  0
   57.5340   77.9010   29.3640 H   0  0  0  0  0  0  0  0  0  0  0  0
   59.2997   78.9105   30.0654 H   0  0  0  0  0  0  0  0  0  0  0  0
   58.5530   79.5551   32.0377 H   0  0  0  0  0  0  0  0  0  0  0  0
   58.6732   81.2129   31.3566 H   0  0  0  0  0  0  0  0  0  0  0  0
   57.0955   80.3540   31.3566 H   0  0  0  0  0  0  0  0  0  0  0  0
   59.6011   81.4568   29.4733 H   0  0  0  0  0  0  0  0  0  0  0  0
   59.8532   80.1408   28.2768 H   0  0  0  0  0  0  0  0  0  0  0  0
   58.3175   81.0727   28.2768 H   0  0  0  0  0  0  0  0  0  0  0  0
  1  2  1  0
  2  3  1  0
  3  4  2  0
  4  5  1  0
  5  6  1  0
  6  7  2  0
  7  8  1  0
  8  9  1  0
  9 10  1  0
  9 11  2  0
  9 12  2  0
  8 13  2  0
 13 14  1  0
  4 15  1  0
 15 16  2  0
 16 17  1  0
 17 18  1  0
 18 19  1  0
 19 20  1  0
 19 21  1  0
 17  2  2  0
 14  5  2  0
  1 22  1  0
  1 23  1  0
  1 24  1  0
  3 25  1  0
  6 26  1  0
  7 27  1  0
 10 28  1  0
 10 29  1  0
 13 30  1  0
 14 31  1  0
 15 32  1  0
 16 33  1  0
 18 34  1  0
 19 35  1  0
 20 36  1  0
 20 37  1  0
 20 38  1  0
 21 39  1  0
 21 40  1  0
 21 41  1  0
M  END
>  <meeko>  (1) 
{"is_sidechain": false}

>  <smiles>  (1) 
Cc1cc(-c2ccc(S(N)(=O)=O)cc2)ccc1NC(C)C

>  <vina_score>  (1) 
-8.762

>  <job_id>  (1) 
092e10acae35d367

$$$$
