
     RDKit          3D

 53 55  0  0  0  0  0  0  0  0999 V2000
   66.0430   83.7780   30.6360 C   0  0  0  0  0  0  0  0  0  0  0  0
   64.7540   83.9810   29.9680 N   0  0  0  0  0  0  0  0  0  0  0  0
   64.8060   85.2020   29.1610 C   0  0  0  0  0  0  0  0  0  0  0  0
   63.6670   84.0170   30.9690 C   0  0  0  0  0  0  0  0  0  0  0  0
   62.5450   82.9600   30.8230 C   0  0  0  0  0  0  0  0  0  0  0  0
   63.1000   81.6470   30.6470 O   0  0  0  0  0  0  0  0  0  0  0  0
   61.5680   82.9700   32.0100 C   0  0  0  0  0  0  0  0  0  0  0  0
   60.2110   83.1050   31.5600 O   0  0  0  0  0  0  0  0  0  0  0  0
   59.6610   82.1010   30.8170 C   0  0  0  0  0  0  0  0  0  0  0  0
   59.5440   82.0590   29.4310 C   0  0  0  0  0  0  0  0  0  0  0  0
   58.9560   80.9490   28.8010 C   0  0  0  0  0  0  0  0  0  0  0  0
   58.4730   79.8630   29.5340 C   0  0  0  0  0  0  0  0  0  0  0  0
   57.8850   78.7300   28.9630 N   0  0  0  0  0  0  0  0  0  0  0  0
   56.5720   78.3150   28.7640 C   0  0  0  0  0  0  0  0  0  0  0  0
   55.9610   77.4640   29.5970 N   0  0  0  0  0  0  0  0  0  0  0  0
   54.6820   77.1380   29.3170 C   0  0  0  0  0  0  0  0  0  0  0  0
   53.9890   77.6120   28.2310 C   0  0  0  0  0  0  0  0  0  0  0  0
   52.3430   77.1710   28.0140 Cl  0  0  0  0  0  0  0  0  0  0  0  0
   54.7000   78.4690   27.4050 C   0  0  0  0  0  0  0  0  0  0  0  0
   54.1540   79.0590   26.2460 N   0  0  0  0  0  0  0  0  0  0  0  0
   53.7280   80.4050   26.1160 C   0  0  0  0  0  0  0  0  0  0  0  0
   53.4950   81.0130   24.8770 C   0  0  0  0  0  0  0  0  0  0  0  0
   53.1460   82.3640   24.8020 C   0  0  0  0  0  0  0  0  0  0  0  0
   53.0490   83.1270   25.9640 C   0  0  0  0  0  0  0  0  0  0  0  0
   53.3100   82.5420   27.2000 C   0  0  0  0  0  0  0  0  0  0  0  0
   53.6580   81.1910   27.2730 C   0  0  0  0  0  0  0  0  0  0  0  0
   55.9740   78.8350   27.6780 N   0  0  0  0  0  0  0  0  0  0  0  0
   58.6000   79.9210   30.9300 C   0  0  0  0  0  0  0  0  0  0  0  0
   59.1850   81.0240   31.5610 C   0  0  0  0  0  0  0  0  0  0  0  0
   65.8986   83.8007   31.7262 H   0  0  0  0  0  0  0  0  0  0  0  0
   66.4591   82.8033   30.3415 H   0  0  0  0  0  0  0  0  0  0  0  0
   66.7386   84.5777   30.3415 H   0  0  0  0  0  0  0  0  0  0  0  0
   64.8433   86.0787   29.8244 H   0  0  0  0  0  0  0  0  0  0  0  0
   65.7042   85.1840   28.5262 H   0  0  0  0  0  0  0  0  0  0  0  0
   63.9095   85.2604   28.5262 H   0  0  0  0  0  0  0  0  0  0  0  0
   64.1237   83.8820   31.9605 H   0  0  0  0  0  0  0  0  0  0  0  0
   63.1694   84.9862   30.8173 H   0  0  0  0  0  0  0  0  0  0  0  0
   61.9708   83.2316   29.9249 H   0  0  0  0  0  0  0  0  0  0  0  0
   62.4410   81.0090   30.9690 H   0  0  0  0  0  0  0  0  0  0  0  0
   61.6698   82.0271   32.5673 H   0  0  0  0  0  0  0  0  0  0  0  0
   61.8097   83.8277   32.6550 H   0  0  0  0  0  0  0  0  0  0  0  0
   59.9138   82.8994   28.8252 H   0  0  0  0  0  0  0  0  0  0  0  0
   58.8742   80.9353   27.7041 H   0  0  0  0  0  0  0  0  0  0  0  0
   58.5130   78.0190   28.6190 H   0  0  0  0  0  0  0  0  0  0  0  0
   54.1629   76.4503   30.0008 H   0  0  0  0  0  0  0  0  0  0  0  0
   53.3650   78.4600   25.9980 H   0  0  0  0  0  0  0  0  0  0  0  0
   53.5875   80.4219   23.9539 H   0  0  0  0  0  0  0  0  0  0  0  0
   52.9474   82.8261   23.8237 H   0  0  0  0  0  0  0  0  0  0  0  0
   52.7670   84.1886   25.9048 H   0  0  0  0  0  0  0  0  0  0  0  0
   53.2423   83.1432   28.1187 H   0  0  0  0  0  0  0  0  0  0  0  0
   53.8797   80.7391   28.2511 H   0  0  0  0  0  0  0  0  0  0  0  0
   58.2324   79.0829   31.5402 H   0  0  0  0  0  0  0  0  0  0  0  0
   59.2701   81.0410   32.6576 H   0  0  0  0  0  0  0  0  0  0  0  0
  1  2  1  0
  2  3  1  0
  2  4  1  0
  4  5  1  0
  5  6  1  0
  5  7  1  0
  7  8  1  0
  8  9  1  0
  9 10  1  0
 10 11  2  0
 11 12  1  0
 12 13  1  0
 13 14  1  0
 14 15  2  0
 15 16  1  0
 16 17  2  0
 17 18  1  0
 17 19  1  0
 19 20  1  0
 20 21  1  0
 21 22  2  0
 22 23  1  0
 23 24  2  0
 24 25  1  0
 25 26  2  0
 19 27  2  0
 12 28  2  0
 28 29  1  0
 29  9  2  0
 27 14  1  0
 26 21  1  0
  1 30  1  0
  1 31  1  0
  1 32  1  0
  3 33  1  0
  3 34  1  0
  3 35  1  0
  4 36  1  0
  4 37  1  0
  5 38  1  0
  6 39  1  0
  7 40  1  0
  7 41  1  0
 10 42  1  0
 11 43  1  0
 13 44  1  0
 16 45  1  0
 20 46  1  0
 22 47  1  0
 23 48  1  0
 24 49  1  0
 25 50  1  0
 26 51  1  0
 28 52  1  0
 29 53  1  0
M  END
>  <meeko>  (1) 
{"is_sidechain": false}

>  <smiles>  (1) 
CN(C)CC(O)COc1ccc(Nc2ncc(Cl)c(Nc3ccccc3)n2)cc1

>  <vina_score>  (1) 
-7.968

>  <job_id>  (1) 
0937cf972ddf8a1e

$$$$
