
     RDKit          3D

 41 42  0  0  0  0  0  0  0  0999 V2000
   59.6870   81.7400   29.1430 C   0  0  0  0  0  0  0  0  0  0  0  0
   59.2780   80.4810   29.8960 C   0  0  0  0  0  0  0  0  0  0  0  0
   58.8570   79.4590   28.9370 N   0  0  0  0  0  0  0  0  0  0  0  0
   57.5260   78.8830   29.1970 C   0  0  0  0  0  0  0  0  0  0  0  0
   57.0660   79.1340   30.6400 C   0  0  0  0  0  0  0  0  0  0  0  0
   56.5170   79.2240   28.1070 C   0  0  0  0  0  0  0  0  0  0  0  0
   56.8190   80.2590   27.2070 C   0  0  0  0  0  0  0  0  0  0  0  0
   55.9300   80.6150   26.1870 C   0  0  0  0  0  0  0  0  0  0  0  0
   54.7060   79.9500   26.0320 C   0  0  0  0  0  0  0  0  0  0  0  0
   53.7680   80.3240   24.9600 C   0  0  0  0  0  0  0  0  0  0  0  0
   53.4610   81.6730   24.7070 C   0  0  0  0  0  0  0  0  0  0  0  0
   52.5700   82.0350   23.6930 C   0  0  0  0  0  0  0  0  0  0  0  0
   51.9790   81.0400   22.9130 C   0  0  0  0  0  0  0  0  0  0  0  0
   50.8440   81.4800   21.6240 S   0  0  0  0  0  0  0  0  0  0  0  0
   49.3770   80.9860   22.2890 N   0  0  0  0  0  0  0  0  0  0  0  0
   51.0680   80.6070   20.4940 O   0  0  0  0  0  0  0  0  0  0  0  0
   50.8200   82.9180   21.5060 O   0  0  0  0  0  0  0  0  0  0  0  0
   52.2560   79.6920   23.1490 C   0  0  0  0  0  0  0  0  0  0  0  0
   53.1480   79.3430   24.1670 C   0  0  0  0  0  0  0  0  0  0  0  0
   54.4030   78.9190   26.9330 C   0  0  0  0  0  0  0  0  0  0  0  0
   55.2910   78.5620   27.9560 C   0  0  0  0  0  0  0  0  0  0  0  0
   59.9439   82.5308   29.8632 H   0  0  0  0  0  0  0  0  0  0  0  0
   60.5605   81.5218   28.5110 H   0  0  0  0  0  0  0  0  0  0  0  0
   58.8521   82.0768   28.5110 H   0  0  0  0  0  0  0  0  0  0  0  0
   60.1327   80.1077   30.4792 H   0  0  0  0  0  0  0  0  0  0  0  0
   58.4455   80.7128   30.5766 H   0  0  0  0  0  0  0  0  0  0  0  0
   59.5450   78.7080   28.9240 H   0  0  0  0  0  0  0  0  0  0  0  0
   57.6081   77.7882   29.1291 H   0  0  0  0  0  0  0  0  0  0  0  0
   57.8118   78.7270   31.3386 H   0  0  0  0  0  0  0  0  0  0  0  0
   56.9585   80.2158   30.8076 H   0  0  0  0  0  0  0  0  0  0  0  0
   56.0981   78.6390   30.8076 H   0  0  0  0  0  0  0  0  0  0  0  0
   57.7719   80.7996   27.3058 H   0  0  0  0  0  0  0  0  0  0  0  0
   56.1956   81.4289   25.4964 H   0  0  0  0  0  0  0  0  0  0  0  0
   53.9308   82.4575   25.3184 H   0  0  0  0  0  0  0  0  0  0  0  0
   52.3366   83.0945   23.5113 H   0  0  0  0  0  0  0  0  0  0  0  0
   48.9430   81.6950   22.8800 H   0  0  0  0  0  0  0  0  0  0  0  0
   49.5220   80.1080   22.7900 H   0  0  0  0  0  0  0  0  0  0  0  0
   51.7767   78.9118   22.5394 H   0  0  0  0  0  0  0  0  0  0  0  0
   53.3688   78.2812   24.3509 H   0  0  0  0  0  0  0  0  0  0  0  0
   53.4492   78.3799   26.8345 H   0  0  0  0  0  0  0  0  0  0  0  0
   55.0225   77.7516   28.6497 H   0  0  0  0  0  0  0  0  0  0  0  0
  1  2  1  0
  2  3  1  0
  3  4  1  0
  4  5  1  0
  4  6  1  0
  6  7  1  0
  7  8  2  0
  8  9  1  0
  9 10  1  0
 10 11  1  0
 11 12  2  0
 12 13  1  0
 13 14  1  0
 14 15  1  0
 14 16  2  0
 14 17  2  0
 13 18  2  0
 18 19  1  0
  9 20  2  0
 20 21  1  0
 21  6  2  0
 19 10  2  0
  1 22  1  0
  1 23  1  0
  1 24  1  0
  2 25  1  0
  2 26  1  0
  3 27  1  0
  4 28  1  0
  5 29  1  0
  5 30  1  0
  5 31  1  0
  7 32  1  0
  8 33  1  0
 11 34  1  0
 12 35  1  0
 15 36  1  0
 15 37  1  0
 18 38  1  0
 19 39  1  0
 20 40  1  0
 21 41  1  0
M  END
>  <meeko>  (1) 
{"is_sidechain": false}

>  <smiles>  (1) 
CCNC(C)c1ccc(-c2ccc(S(N)(=O)=O)cc2)cc1

>  <vina_score>  (1) 
-7.679

>  <job_id>  (1) 
095da87ecc25ee07

$$$$
