
     RDKit          3D

 45 47  0  0  0  0  0  0  0  0999 V2000
   59.7170   81.3320   28.4330 O   0  0  0  0  0  0  0  0  0  0  0  0
   59.0540   81.2370   29.4630 C   0  0  0  0  0  0  0  0  0  0  0  0
   59.0990   82.2930   30.5540 C   0  0  0  0  0  0  0  0  0  0  0  0
   59.2180   81.7190   31.9470 C   0  0  0  0  0  0  0  0  0  0  0  0
   60.4730   81.3560   32.4560 C   0  0  0  0  0  0  0  0  0  0  0  0
   60.5850   80.8090   33.7340 C   0  0  0  0  0  0  0  0  0  0  0  0
   59.4460   80.6210   34.5150 C   0  0  0  0  0  0  0  0  0  0  0  0
   58.1940   80.9820   34.0200 C   0  0  0  0  0  0  0  0  0  0  0  0
   58.0790   81.5300   32.7410 C   0  0  0  0  0  0  0  0  0  0  0  0
   58.1760   80.2030   29.6980 N   0  0  0  0  0  0  0  0  0  0  0  0
   58.1180   79.0740   28.8010 C   0  0  0  0  0  0  0  0  0  0  0  0
   56.7000   78.6050   28.6320 C   0  0  0  0  0  0  0  0  0  0  0  0
   56.1340   77.7060   29.5380 C   0  0  0  0  0  0  0  0  0  0  0  0
   54.8120   77.3070   29.3810 C   0  0  0  0  0  0  0  0  0  0  0  0
   54.0480   77.8100   28.3200 C   0  0  0  0  0  0  0  0  0  0  0  0
   54.5710   78.7230   27.3900 C   0  0  0  0  0  0  0  0  0  0  0  0
   53.8050   79.2220   26.3520 N   0  0  0  0  0  0  0  0  0  0  0  0
   53.4530   80.6460   26.2480 C   0  0  0  0  0  0  0  0  0  0  0  0
   52.1850   80.8140   25.3940 C   0  0  0  0  0  0  0  0  0  0  0  0
   52.3050   80.3040   24.0590 O   0  0  0  0  0  0  0  0  0  0  0  0
   53.2520   79.2340   23.9440 C   0  0  0  0  0  0  0  0  0  0  0  0
   53.3910   78.3800   25.2160 C   0  0  0  0  0  0  0  0  0  0  0  0
   55.9080   79.1080   27.5810 C   0  0  0  0  0  0  0  0  0  0  0  0
   59.9659   82.9450   30.3713 H   0  0  0  0  0  0  0  0  0  0  0  0
   58.1465   82.8416   30.5114 H   0  0  0  0  0  0  0  0  0  0  0  0
   61.3748   81.5036   31.8436 H   0  0  0  0  0  0  0  0  0  0  0  0
   61.5730   80.5257   34.1259 H   0  0  0  0  0  0  0  0  0  0  0  0
   59.5351   80.1877   35.5221 H   0  0  0  0  0  0  0  0  0  0  0  0
   57.2957   80.8350   34.6376 H   0  0  0  0  0  0  0  0  0  0  0  0
   57.0892   81.8148   32.3547 H   0  0  0  0  0  0  0  0  0  0  0  0
   57.8710   80.0510   30.6520 H   0  0  0  0  0  0  0  0  0  0  0  0
   58.5201   79.3700   27.8209 H   0  0  0  0  0  0  0  0  0  0  0  0
   58.7149   78.2531   29.2250 H   0  0  0  0  0  0  0  0  0  0  0  0
   56.7327   77.3146   30.3737 H   0  0  0  0  0  0  0  0  0  0  0  0
   54.3650   76.5953   30.0908 H   0  0  0  0  0  0  0  0  0  0  0  0
   53.0046   77.4791   28.2119 H   0  0  0  0  0  0  0  0  0  0  0  0
   53.2704   81.0504   27.2545 H   0  0  0  0  0  0  0  0  0  0  0  0
   54.2830   81.1890   25.7723 H   0  0  0  0  0  0  0  0  0  0  0  0
   51.3600   80.2844   25.8930 H   0  0  0  0  0  0  0  0  0  0  0  0
   52.0042   81.8954   25.3048 H   0  0  0  0  0  0  0  0  0  0  0  0
   52.9339   78.5780   23.1203 H   0  0  0  0  0  0  0  0  0  0  0  0
   54.2335   79.6966   23.7633 H   0  0  0  0  0  0  0  0  0  0  0  0
   52.4232   77.9103   25.4457 H   0  0  0  0  0  0  0  0  0  0  0  0
   54.1538   77.6057   25.0467 H   0  0  0  0  0  0  0  0  0  0  0  0
   56.3545   79.8309   26.8824 H   0  0  0  0  0  0  0  0  0  0  0  0
  1  2  2  0
  2  3  1  0
  3  4  1  0
  4  5  2  0
  5  6  1  0
  6  7  2  0
  7  8  1  0
  8  9  2  0
  2 10  1  0
 10 11  1  0
 11 12  1  0
 12 13  2  0
 13 14  1  0
 14 15  2  0
 15 16  1  0
 16 17  1  0
 17 18  1  0
 18 19  1  0
 19 20  1  0
 20 21  1  0
 21 22  1  0
 16 23  2  0
  9  4  1  0
 23 12  1  0
 22 17  1  0
  3 24  1  0
  3 25  1  0
  5 26  1  0
  6 27  1  0
  7 28  1  0
  8 29  1  0
  9 30  1  0
 10 31  1  0
 11 32  1  0
 11 33  1  0
 13 34  1  0
 14 35  1  0
 15 36  1  0
 18 37  1  0
 18 38  1  0
 19 39  1  0
 19 40  1  0
 21 41  1  0
 21 42  1  0
 22 43  1  0
 22 44  1  0
 23 45  1  0
M  END
>  <meeko>  (1) 
{"is_sidechain": false}

>  <smiles>  (1) 
O=C(Cc1ccccc1)NCc1cccc(N2CCOCC2)c1

>  <vina_score>  (1) 
-8.058

>  <job_id>  (1) 
0973138cc9e9edbc

$$$$
