
     RDKit          3D

 67 68  0  0  0  0  0  0  0  0999 V2000
   65.2760   85.4450   28.2970 C   0  0  0  0  0  0  0  0  0  0  0  0
   64.5940   85.5910   29.6640 C   0  0  2  0  0  0  0  0  0  0  0  0
   63.9630   86.9930   29.8350 C   0  0  2  0  0  0  0  0  0  0  0  0
   62.6600   86.8600   30.3830 O   0  0  0  0  0  0  0  0  0  0  0  0
   63.8090   87.8950   28.2620 S   0  0  0  0  0  0  0  0  0  0  0  0
   65.5110   85.1860   30.8660 C   0  0  1  0  0  0  0  0  0  0  0  0
   66.4000   86.3510   31.3040 C   0  0  0  0  0  0  0  0  0  0  0  0
   64.5890   84.4920   32.2640 S   0  0  0  0  0  0  0  0  0  0  0  0
   63.9000   85.5790   32.9380 O   0  0  0  0  0  0  0  0  0  0  0  0
   65.4970   83.6620   33.0300 O   0  0  0  0  0  0  0  0  0  0  0  0
   63.2950   83.4270   31.5610 C   0  0  1  0  0  0  0  0  0  0  0  0
   63.8780   82.1260   31.0200 C   0  0  0  0  0  0  0  0  0  0  0  0
   62.2180   83.0720   32.4300 O   0  0  0  0  0  0  0  0  0  0  0  0
   60.7260   83.6350   32.0910 S   0  0  0  0  0  0  0  0  0  0  0  0
   60.0060   83.7760   33.3390 O   0  0  0  0  0  0  0  0  0  0  0  0
   60.8460   84.7080   31.1270 O   0  0  0  0  0  0  0  0  0  0  0  0
   59.9800   82.2550   31.2490 C   0  0  0  0  0  0  0  0  0  0  0  0
   59.2290   81.3180   31.9550 C   0  0  0  0  0  0  0  0  0  0  0  0
   58.6410   80.2480   31.2710 C   0  0  0  0  0  0  0  0  0  0  0  0
   58.7930   80.0940   29.8870 C   0  0  0  0  0  0  0  0  0  0  0  0
   58.2280   79.0470   29.1500 N   0  0  0  0  0  0  0  0  0  0  0  0
   56.9670   78.8160   28.6110 C   0  0  0  0  0  0  0  0  0  0  0  0
   56.1840   77.8100   29.0180 N   0  0  0  0  0  0  0  0  0  0  0  0
   54.9860   77.6600   28.4210 C   0  0  0  0  0  0  0  0  0  0  0  0
   54.5210   78.4890   27.4340 C   0  0  0  0  0  0  0  0  0  0  0  0
   53.2030   78.3030   26.7850 C   0  0  0  0  0  0  0  0  0  0  0  0
   52.3470   79.3370   27.0080 F   0  0  0  0  0  0  0  0  0  0  0  0
   52.5590   77.1770   27.2000 F   0  0  0  0  0  0  0  0  0  0  0  0
   53.2900   78.1910   25.4290 F   0  0  0  0  0  0  0  0  0  0  0  0
   55.3750   79.5030   27.1020 C   0  0  0  0  0  0  0  0  0  0  0  0
   55.0220   80.3450   26.0750 O   0  0  0  0  0  0  0  0  0  0  0  0
   54.5480   81.6530   26.4890 C   0  0  2  0  0  0  0  0  0  0  0  0
   53.2830   81.8780   25.6570 C   0  0  0  0  0  0  0  0  0  0  0  0
   55.6660   82.7060   26.2350 C   0  0  2  0  0  0  0  0  0  0  0  0
   56.6850   82.6180   27.2300 O   0  0  0  0  0  0  0  0  0  0  0  0
   55.0820   84.4300   26.2020 S   0  0  0  0  0  0  0  0  0  0  0  0
   56.5970   79.6730   27.6450 N   0  0  0  0  0  0  0  0  0  0  0  0
   59.5590   81.0550   29.2020 C   0  0  0  0  0  0  0  0  0  0  0  0
   60.1520   82.1300   29.8710 C   0  0  0  0  0  0  0  0  0  0  0  0
   66.3423   85.2167   28.4417 H   0  0  0  0  0  0  0  0  0  0  0  0
   64.7993   84.6286   27.7347 H   0  0  0  0  0  0  0  0  0  0  0  0
   65.1753   86.3851   27.7347 H   0  0  0  0  0  0  0  0  0  0  0  0
   63.7714   84.8609   29.6802 H   0  0  0  0  0  0  0  0  0  0  0  0
   64.6323   87.5608   30.4981 H   0  0  0  0  0  0  0  0  0  0  0  0
   62.1130   87.4800   29.8680 H   0  0  0  0  0  0  0  0  0  0  0  0
   64.2410   89.0730   28.7350 H   0  0  0  0  0  0  0  0  0  0  0  0
   66.1613   84.3782   30.4991 H   0  0  0  0  0  0  0  0  0  0  0  0
   66.4330   86.3942   32.4027 H   0  0  0  0  0  0  0  0  0  0  0  0
   67.4172   86.2035   30.9122 H   0  0  0  0  0  0  0  0  0  0  0  0
   65.9892   87.2932   30.9122 H   0  0  0  0  0  0  0  0  0  0  0  0
   62.8741   84.0645   30.7695 H   0  0  0  0  0  0  0  0  0  0  0  0
   64.1687   81.4774   31.8595 H   0  0  0  0  0  0  0  0  0  0  0  0
   63.1233   81.6138   30.4051 H   0  0  0  0  0  0  0  0  0  0  0  0
   64.7626   82.3483   30.4051 H   0  0  0  0  0  0  0  0  0  0  0  0
   59.0990   81.4184   33.0427 H   0  0  0  0  0  0  0  0  0  0  0  0
   58.0466   79.5120   31.8323 H   0  0  0  0  0  0  0  0  0  0  0  0
   58.8260   78.2520   28.9680 H   0  0  0  0  0  0  0  0  0  0  0  0
   54.3455   76.8259   28.7436 H   0  0  0  0  0  0  0  0  0  0  0  0
   54.3122   81.7369   27.5602 H   0  0  0  0  0  0  0  0  0  0  0  0
   52.4250   82.0306   26.3282 H   0  0  0  0  0  0  0  0  0  0  0  0
   53.4148   82.7668   25.0224 H   0  0  0  0  0  0  0  0  0  0  0  0
   53.1002   80.9983   25.0224 H   0  0  0  0  0  0  0  0  0  0  0  0
   56.0516   82.4581   25.2351 H   0  0  0  0  0  0  0  0  0  0  0  0
   57.1530   83.4750   27.2190 H   0  0  0  0  0  0  0  0  0  0  0  0
   55.0540   84.5260   24.8660 H   0  0  0  0  0  0  0  0  0  0  0  0
   59.6945   80.9583   28.1147 H   0  0  0  0  0  0  0  0  0  0  0  0
   60.7480   82.8694   29.3160 H   0  0  0  0  0  0  0  0  0  0  0  0
  1  2  1  0
  2  3  1  0
  3  4  1  0
  3  5  1  0
  2  6  1  0
  6  7  1  0
  6  8  1  0
  8  9  2  0
  8 10  2  0
  8 11  1  0
 11 12  1  0
 11 13  1  0
 13 14  1  0
 14 15  2  0
 14 16  2  0
 14 17  1  0
 17 18  1  0
 18 19  2  0
 19 20  1  0
 20 21  1  0
 21 22  1  0
 22 23  2  0
 23 24  1  0
 24 25  2  0
 25 26  1  0
 26 27  1  0
 26 28  1  0
 26 29  1  0
 25 30  1  0
 30 31  1  0
 31 32  1  0
 32 33  1  0
 32 34  1  0
 34 35  1  0
 34 36  1  0
 30 37  2  0
 20 38  2  0
 38 39  1  0
 39 17  2  0
 37 22  1  0
  1 40  1  0
  1 41  1  0
  1 42  1  0
  2 43  1  6
  3 44  1  1
  4 45  1  0
  5 46  1  0
  6 47  1  6
  7 48  1  0
  7 49  1  0
  7 50  1  0
 11 51  1  6
 12 52  1  0
 12 53  1  0
 12 54  1  0
 18 55  1  0
 19 56  1  0
 21 57  1  0
 24 58  1  0
 32 59  1  1
 33 60  1  0
 33 61  1  0
 33 62  1  0
 34 63  1  6
 35 64  1  0
 36 65  1  0
 38 66  1  0
 39 67  1  0
M  END
>  <meeko>  (1) 
{"is_sidechain": false}

>  <smiles>  (1) 
C[C@H]([C@H](O)S)[C@@H](C)S(=O)(=O)[C@@H](C)OS(=O)(=O)c1ccc(Nc2ncc(C(F)(F)F)c(O[C@H](C)[C@H](O)S)n2)cc1

>  <vina_score>  (1) 
-7.337

>  <job_id>  (1) 
098a74cc7a944565

$$$$
