
     RDKit          3D

 58 61  0  0  0  0  0  0  0  0999 V2000
   60.0640   80.6070   36.3340 C   0  0  0  0  0  0  0  0  0  0  0  0
   60.6950   80.3810   34.9870 C   0  0  0  0  0  0  0  0  0  0  0  0
   61.8290   79.9280   34.8650 O   0  0  0  0  0  0  0  0  0  0  0  0
   59.8940   80.7400   33.9240 N   0  0  0  0  0  0  0  0  0  0  0  0
   60.3890   80.7020   32.5540 C   0  0  2  0  0  0  0  0  0  0  0  0
   60.9230   82.0780   32.1170 C   0  0  0  0  0  0  0  0  0  0  0  0
   59.8630   82.8850   31.3790 C   0  0  0  0  0  0  0  0  0  0  0  0
   59.3890   82.1770   30.1070 C   0  0  0  0  0  0  0  0  0  0  0  0
   59.4880   80.6420   30.1800 C   0  0  0  0  0  0  0  0  0  0  0  0
   58.4920   79.9520   29.2410 C   0  0  0  0  0  0  0  0  0  0  0  0
   58.5770   80.0410   28.0200 O   0  0  0  0  0  0  0  0  0  0  0  0
   57.5290   79.2420   29.9230 N   0  0  0  0  0  0  0  0  0  0  0  0
   56.4570   78.5160   29.4060 C   0  0  0  0  0  0  0  0  0  0  0  0
   55.7030   78.9010   28.3070 C   0  0  0  0  0  0  0  0  0  0  0  0
   54.6450   78.0850   27.8680 C   0  0  0  0  0  0  0  0  0  0  0  0
   53.8680   78.5130   26.7200 C   0  0  0  0  0  0  0  0  0  0  0  0
   53.3100   77.7840   25.6240 C   0  0  0  0  0  0  0  0  0  0  0  0
   52.6340   78.5610   24.7610 N   0  0  0  0  0  0  0  0  0  0  0  0
   52.7700   79.7590   25.3110 N   0  0  0  0  0  0  0  0  0  0  0  0
   53.4770   79.8030   26.4630 C   0  0  0  0  0  0  0  0  0  0  0  0
   53.5550   81.1860   26.9750 C   0  0  0  0  0  0  0  0  0  0  0  0
   53.0690   82.0340   25.7410 C   0  0  0  0  0  0  0  0  0  0  0  0
   54.2830   82.5810   24.9690 C   0  0  0  0  0  0  0  0  0  0  0  0
   52.1850   83.2000   26.1890 C   0  0  0  0  0  0  0  0  0  0  0  0
   52.2720   81.0390   24.8450 C   0  0  0  0  0  0  0  0  0  0  0  0
   54.3830   76.9020   28.5640 C   0  0  0  0  0  0  0  0  0  0  0  0
   53.1510   75.7790   28.1270 Cl  0  0  0  0  0  0  0  0  0  0  0  0
   55.1850   76.6060   29.6560 C   0  0  0  0  0  0  0  0  0  0  0  0
   56.2070   77.3820   30.0910 N   0  0  0  0  0  0  0  0  0  0  0  0
   59.2920   80.1620   31.6230 C   0  0  0  0  0  0  0  0  0  0  0  0
   60.7843   80.3490   37.1243 H   0  0  0  0  0  0  0  0  0  0  0  0
   59.7760   81.6642   36.4313 H   0  0  0  0  0  0  0  0  0  0  0  0
   59.1703   79.9731   36.4313 H   0  0  0  0  0  0  0  0  0  0  0  0
   59.0820   81.3120   34.1210 H   0  0  0  0  0  0  0  0  0  0  0  0
   61.2447   80.0135   32.4929 H   0  0  0  0  0  0  0  0  0  0  0  0
   61.2396   82.6374   33.0096 H   0  0  0  0  0  0  0  0  0  0  0  0
   61.7689   81.9161   31.4327 H   0  0  0  0  0  0  0  0  0  0  0  0
   59.0008   83.0333   32.0458 H   0  0  0  0  0  0  0  0  0  0  0  0
   60.3090   83.8473   31.0874 H   0  0  0  0  0  0  0  0  0  0  0  0
   58.3382   82.4492   29.9290 H   0  0  0  0  0  0  0  0  0  0  0  0
   60.0509   82.5036   29.2914 H   0  0  0  0  0  0  0  0  0  0  0  0
   60.4970   80.3620   29.8431 H   0  0  0  0  0  0  0  0  0  0  0  0
   57.5870   79.1620   30.9300 H   0  0  0  0  0  0  0  0  0  0  0  0
   55.9315   79.8399   27.7815 H   0  0  0  0  0  0  0  0  0  0  0  0
   53.4227   76.6969   25.4998 H   0  0  0  0  0  0  0  0  0  0  0  0
   52.8913   81.3274   27.8407 H   0  0  0  0  0  0  0  0  0  0  0  0
   54.5572   81.4656   27.3319 H   0  0  0  0  0  0  0  0  0  0  0  0
   55.0465   82.9250   25.6823 H   0  0  0  0  0  0  0  0  0  0  0  0
   54.7040   81.7856   24.3365 H   0  0  0  0  0  0  0  0  0  0  0  0
   53.9661   83.4233   24.3365 H   0  0  0  0  0  0  0  0  0  0  0  0
   52.1566   83.2374   27.2880 H   0  0  0  0  0  0  0  0  0  0  0  0
   52.5972   84.1430   25.8005 H   0  0  0  0  0  0  0  0  0  0  0  0
   51.1658   83.0577   25.8005 H   0  0  0  0  0  0  0  0  0  0  0  0
   51.1883   81.1314   25.0093 H   0  0  0  0  0  0  0  0  0  0  0  0
   52.4066   81.2041   23.7658 H   0  0  0  0  0  0  0  0  0  0  0  0
   54.9771   75.6770   30.2071 H   0  0  0  0  0  0  0  0  0  0  0  0
   58.3135   80.5104   31.9851 H   0  0  0  0  0  0  0  0  0  0  0  0
   59.3457   79.0633   31.6299 H   0  0  0  0  0  0  0  0  0  0  0  0
  1  2  1  0
  2  3  2  0
  2  4  1  0
  4  5  1  0
  5  6  1  0
  6  7  1  0
  7  8  1  0
  8  9  1  0
  9 10  1  0
 10 11  2  0
 10 12  1  0
 12 13  1  0
 13 14  2  0
 14 15  1  0
 15 16  1  0
 16 17  1  0
 17 18  2  0
 18 19  1  0
 19 20  1  0
 20 21  1  0
 21 22  1  0
 22 23  1  0
 22 24  1  0
 22 25  1  0
 15 26  2  0
 26 27  1  0
 26 28  1  0
 28 29  2  0
  9 30  1  0
 30  5  1  0
 29 13  1  0
 20 16  2  0
 25 19  1  0
  1 31  1  0
  1 32  1  0
  1 33  1  0
  4 34  1  0
  5 35  1  1
  6 36  1  0
  6 37  1  0
  7 38  1  0
  7 39  1  0
  8 40  1  0
  8 41  1  0
  9 42  1  0
 12 43  1  0
 14 44  1  0
 17 45  1  0
 21 46  1  0
 21 47  1  0
 23 48  1  0
 23 49  1  0
 23 50  1  0
 24 51  1  0
 24 52  1  0
 24 53  1  0
 25 54  1  0
 25 55  1  0
 28 56  1  0
 30 57  1  0
 30 58  1  0
M  END
>  <meeko>  (1) 
{"is_sidechain": false}

>  <smiles>  (1) 
CC(=O)N[C@@H]1CCCC(C(=O)Nc2cc(-c3cnn4c3CC(C)(C)C4)c(Cl)cn2)C1

>  <vina_score>  (1) 
-8.494

>  <job_id>  (1) 
09b6b3f993cd5332

$$$$
