
     RDKit          3D

 45 47  0  0  0  0  0  0  0  0999 V2000
   65.8280   84.1780   30.8140 C   0  0  0  0  0  0  0  0  0  0  0  0
   64.5490   84.2360   31.5160 N   0  0  0  0  0  0  0  0  0  0  0  0
   64.0850   82.9010   31.9370 C   0  0  0  0  0  0  0  0  0  0  0  0
   63.0350   82.2460   31.0200 C   0  0  0  0  0  0  0  0  0  0  0  0
   61.8780   83.1140   30.7720 N   0  0  0  0  0  0  0  0  0  0  0  0
   60.6010   82.6810   30.4360 C   0  0  0  0  0  0  0  0  0  0  0  0
   59.6480   83.4560   30.4390 O   0  0  0  0  0  0  0  0  0  0  0  0
   60.5210   81.3570   30.1010 N   0  0  0  0  0  0  0  0  0  0  0  0
   59.3890   80.6050   29.7960 C   0  0  0  0  0  0  0  0  0  0  0  0
   58.4940   80.1190   30.7370 C   0  0  0  0  0  0  0  0  0  0  0  0
   57.4010   79.3670   30.3050 C   0  0  0  0  0  0  0  0  0  0  0  0
   57.2290   79.1070   28.9450 C   0  0  0  0  0  0  0  0  0  0  0  0
   56.0540   78.3140   28.4370 C   0  0  0  0  0  0  0  0  0  0  0  0
   55.1180   79.0970   27.5440 C   0  0  0  0  0  0  0  0  0  0  0  0
   53.7980   78.6690   27.3450 C   0  0  0  0  0  0  0  0  0  0  0  0
   52.9350   79.3930   26.5200 C   0  0  0  0  0  0  0  0  0  0  0  0
   53.3840   80.5480   25.8840 C   0  0  0  0  0  0  0  0  0  0  0  0
   54.6940   80.9830   26.0720 C   0  0  0  0  0  0  0  0  0  0  0  0
   55.5580   80.2610   26.8950 C   0  0  0  0  0  0  0  0  0  0  0  0
   58.1820   79.6310   28.0790 C   0  0  0  0  0  0  0  0  0  0  0  0
   59.2480   80.3670   28.4730 N   0  0  0  0  0  0  0  0  0  0  0  0
   62.0910   84.5430   31.0200 C   0  0  0  0  0  0  0  0  0  0  0  0
   63.5390   84.9550   30.7100 C   0  0  0  0  0  0  0  0  0  0  0  0
   66.6473   84.1408   31.5471 H   0  0  0  0  0  0  0  0  0  0  0  0
   65.8594   83.2775   30.1830 H   0  0  0  0  0  0  0  0  0  0  0  0
   65.9408   85.0720   30.1830 H   0  0  0  0  0  0  0  0  0  0  0  0
   64.9600   82.2358   31.9800 H   0  0  0  0  0  0  0  0  0  0  0  0
   63.5904   83.0450   32.9089 H   0  0  0  0  0  0  0  0  0  0  0  0
   63.5091   82.0080   30.0564 H   0  0  0  0  0  0  0  0  0  0  0  0
   62.6686   81.3418   31.5280 H   0  0  0  0  0  0  0  0  0  0  0  0
   61.3670   80.8620   29.8720 H   0  0  0  0  0  0  0  0  0  0  0  0
   58.6434   80.3232   31.8075 H   0  0  0  0  0  0  0  0  0  0  0  0
   56.6758   78.9796   31.0357 H   0  0  0  0  0  0  0  0  0  0  0  0
   56.4379   77.4556   27.8663 H   0  0  0  0  0  0  0  0  0  0  0  0
   55.4707   78.0122   29.3195 H   0  0  0  0  0  0  0  0  0  0  0  0
   53.4394   77.7559   27.8426 H   0  0  0  0  0  0  0  0  0  0  0  0
   51.9000   79.0511   26.3722 H   0  0  0  0  0  0  0  0  0  0  0  0
   52.7039   81.1169   25.2330 H   0  0  0  0  0  0  0  0  0  0  0  0
   55.0471   81.8964   25.5711 H   0  0  0  0  0  0  0  0  0  0  0  0
   56.5926   80.6066   27.0366 H   0  0  0  0  0  0  0  0  0  0  0  0
   58.0622   79.4348   27.0033 H   0  0  0  0  0  0  0  0  0  0  0  0
   61.4090   85.1230   30.3808 H   0  0  0  0  0  0  0  0  0  0  0  0
   61.8935   84.7436   32.0834 H   0  0  0  0  0  0  0  0  0  0  0  0
   63.7367   84.7543   29.6467 H   0  0  0  0  0  0  0  0  0  0  0  0
   63.6293   86.0223   30.9606 H   0  0  0  0  0  0  0  0  0  0  0  0
  1  2  1  0
  2  3  1  0
  3  4  1  0
  4  5  1  0
  5  6  1  0
  6  7  2  0
  6  8  1  0
  8  9  1  0
  9 10  2  0
 10 11  1  0
 11 12  2  0
 12 13  1  0
 13 14  1  0
 14 15  2  0
 15 16  1  0
 16 17  2  0
 17 18  1  0
 18 19  2  0
 12 20  1  0
 20 21  2  0
  5 22  1  0
 22 23  1  0
 23  2  1  0
 21  9  1  0
 19 14  1  0
  1 24  1  0
  1 25  1  0
  1 26  1  0
  3 27  1  0
  3 28  1  0
  4 29  1  0
  4 30  1  0
  8 31  1  0
 10 32  1  0
 11 33  1  0
 13 34  1  0
 13 35  1  0
 15 36  1  0
 16 37  1  0
 17 38  1  0
 18 39  1  0
 19 40  1  0
 20 41  1  0
 22 42  1  0
 22 43  1  0
 23 44  1  0
 23 45  1  0
M  END
>  <meeko>  (1) 
{"is_sidechain": false}

>  <smiles>  (1) 
CN1CCN(C(=O)Nc2ccc(Cc3ccccc3)cn2)CC1

>  <vina_score>  (1) 
-8.225

>  <job_id>  (1) 
09b6df545e80a219

$$$$
