
     RDKit          3D

 65 67  0  0  0  0  0  0  0  0999 V2000
   53.3910   78.7990   24.1090 C   0  0  0  0  0  0  0  0  0  0  0  0
   53.2990   80.1550   24.7490 C   0  0  1  0  0  0  0  0  0  0  0  0
   51.9440   80.5010   24.8530 O   0  0  0  0  0  0  0  0  0  0  0  0
   53.9790   80.1780   26.1120 C   0  0  1  0  0  0  0  0  0  0  0  0
   53.6090   81.4410   26.8560 C   0  0  0  0  0  0  0  0  0  0  0  0
   53.5790   79.0000   26.7870 O   0  0  0  0  0  0  0  0  0  0  0  0
   54.4770   78.2920   27.5960 C   0  0  0  0  0  0  0  0  0  0  0  0
   55.7230   78.7500   27.7530 N   0  0  0  0  0  0  0  0  0  0  0  0
   56.6450   78.1220   28.5170 C   0  0  0  0  0  0  0  0  0  0  0  0
   57.9250   78.7230   28.5930 N   0  0  0  0  0  0  0  0  0  0  0  0
   58.2190   79.8050   29.4660 C   0  0  0  0  0  0  0  0  0  0  0  0
   58.7170   80.9680   28.9260 C   0  0  0  0  0  0  0  0  0  0  0  0
   59.0060   82.0160   29.7750 C   0  0  0  0  0  0  0  0  0  0  0  0
   58.7880   81.8640   31.1460 C   0  0  0  0  0  0  0  0  0  0  0  0
   59.1920   83.2610   32.1350 S   0  0  0  0  0  0  0  0  0  0  0  0
   59.3450   82.8050   33.5990 N   0  0  0  0  0  0  0  0  0  0  0  0
   58.0990   84.2900   32.0940 O   0  0  0  0  0  0  0  0  0  0  0  0
   60.7250   83.9500   31.6220 C   0  0  0  0  0  0  0  0  0  0  0  0
   60.7440   85.3380   31.4760 C   0  0  0  0  0  0  0  0  0  0  0  0
   61.9290   85.9170   31.0730 C   0  0  0  0  0  0  0  0  0  0  0  0
   63.0740   85.1950   30.8110 C   0  0  0  0  0  0  0  0  0  0  0  0
   64.5740   85.9310   30.2970 S   0  0  0  0  0  0  0  0  0  0  0  0
   65.5580   85.7770   31.5130 N   0  0  0  0  0  0  0  0  0  0  0  0
   64.3050   87.4320   30.2510 O   0  0  0  0  0  0  0  0  0  0  0  0
   65.1960   85.3350   28.9060 S   0  0  0  0  0  6  0  0  0  0  0  0
   66.8090   86.8830   29.3460 N   0  0  0  0  0  0  0  0  0  0  0  0
   65.7470   85.1010   27.4500 N   0  0  0  0  0  0  0  0  0  0  0  0
   66.0960   83.9420   29.5400 O   0  0  0  0  0  0  0  0  0  0  0  0
   62.9930   83.8250   30.9730 C   0  0  0  0  0  0  0  0  0  0  0  0
   61.8410   83.1790   31.3740 C   0  0  0  0  0  0  0  0  0  0  0  0
   58.2900   80.6970   31.6810 C   0  0  0  0  0  0  0  0  0  0  0  0
   57.9990   79.6400   30.8120 C   0  0  0  0  0  0  0  0  0  0  0  0
   56.2980   76.9930   29.1440 N   0  0  0  0  0  0  0  0  0  0  0  0
   55.0400   76.5000   29.0060 C   0  0  0  0  0  0  0  0  0  0  0  0
   54.0850   77.1350   28.2260 C   0  0  0  0  0  0  0  0  0  0  0  0
   52.7130   76.6420   28.0450 C   0  0  0  0  0  0  0  0  0  0  0  0
   52.3950   76.6910   26.6970 F   0  0  0  0  0  0  0  0  0  0  0  0
   52.6360   75.3450   28.4990 F   0  0  0  0  0  0  0  0  0  0  0  0
   51.7680   77.3960   28.7340 F   0  0  0  0  0  0  0  0  0  0  0  0
   53.4434   78.0272   24.8911 H   0  0  0  0  0  0  0  0  0  0  0  0
   52.5024   78.6276   23.4837 H   0  0  0  0  0  0  0  0  0  0  0  0
   54.2946   78.7492   23.4837 H   0  0  0  0  0  0  0  0  0  0  0  0
   53.8262   80.8916   24.1250 H   0  0  0  0  0  0  0  0  0  0  0  0
   51.5090   80.0180   25.6000 H   0  0  0  0  0  0  0  0  0  0  0  0
   55.0757   80.1915   26.0283 H   0  0  0  0  0  0  0  0  0  0  0  0
   53.6628   81.2575   27.9393 H   0  0  0  0  0  0  0  0  0  0  0  0
   54.3094   82.2447   26.5850 H   0  0  0  0  0  0  0  0  0  0  0  0
   52.5856   81.7397   26.5850 H   0  0  0  0  0  0  0  0  0  0  0  0
   58.6620   78.3170   27.9510 H   0  0  0  0  0  0  0  0  0  0  0  0
   58.8810   81.0601   27.8422 H   0  0  0  0  0  0  0  0  0  0  0  0
   59.4038   82.9610   29.3766 H   0  0  0  0  0  0  0  0  0  0  0  0
   58.9960   83.3700   34.3710 H   0  0  0  0  0  0  0  0  0  0  0  0
   59.8491   85.9460   31.6745 H   0  0  0  0  0  0  0  0  0  0  0  0
   61.9624   87.0101   30.9546 H   0  0  0  0  0  0  0  0  0  0  0  0
   65.2630   86.2850   32.3750 H   0  0  0  0  0  0  0  0  0  0  0  0
   64.7990   84.3220   28.6840 H   0  0  0  0  0  0  0  0  0  0  0  0
   66.2930   87.4910   28.7120 H   0  0  0  0  0  0  0  0  0  0  0  0
   65.9580   84.0940   27.2640 H   0  0  0  0  0  0  0  0  0  0  0  0
   66.6500   85.6190   27.2260 H   0  0  0  0  0  0  0  0  0  0  0  0
   65.7800   83.1550   29.0360 H   0  0  0  0  0  0  0  0  0  0  0  0
   63.8897   83.2202   30.7727 H   0  0  0  0  0  0  0  0  0  0  0  0
   61.8141   82.0857   31.4918 H   0  0  0  0  0  0  0  0  0  0  0  0
   58.1252   80.5984   32.7641 H   0  0  0  0  0  0  0  0  0  0  0  0
   57.6002   78.6913   31.2005 H   0  0  0  0  0  0  0  0  0  0  0  0
   54.7707   75.5700   29.5281 H   0  0  0  0  0  0  0  0  0  0  0  0
  1  2  1  0
  2  3  1  0
  2  4  1  0
  4  5  1  0
  4  6  1  0
  6  7  1  0
  7  8  2  0
  8  9  1  0
  9 10  1  0
 10 11  1  0
 11 12  1  0
 12 13  2  0
 13 14  1  0
 14 15  1  0
 15 16  2  0
 15 17  2  0
 15 18  1  0
 18 19  1  0
 19 20  2  0
 20 21  1  0
 21 22  1  0
 22 23  2  0
 22 24  2  0
 22 25  1  0
 25 26  2  0
 25 27  1  0
 25 28  1  0
 21 29  2  0
 29 30  1  0
 14 31  2  0
 31 32  1  0
  9 33  2  0
 33 34  1  0
 34 35  2  0
 35 36  1  0
 36 37  1  0
 36 38  1  0
 36 39  1  0
 35  7  1  0
 32 11  2  0
 30 18  2  0
  1 40  1  0
  1 41  1  0
  1 42  1  0
  2 43  1  6
  3 44  1  0
  4 45  1  6
  5 46  1  0
  5 47  1  0
  5 48  1  0
 10 49  1  0
 12 50  1  0
 13 51  1  0
 16 52  1  0
 19 53  1  0
 20 54  1  0
 23 55  1  0
 25 56  1  0
 26 57  1  0
 27 58  1  0
 27 59  1  0
 28 60  1  0
 29 61  1  0
 30 62  1  0
 31 63  1  0
 32 64  1  0
 34 65  1  0
M  END
>  <meeko>  (1) 
{"is_sidechain": false}

>  <smiles>  (1) 
C[C@@H](O)[C@@H](C)Oc1nc(Nc2ccc(S(=N)(=O)c3ccc(S(=N)(=O)[SH](=N)(N)O)cc3)cc2)ncc1C(F)(F)F

>  <vina_score>  (1) 
-8.827

>  <job_id>  (1) 
09faa6443942e7ce

$$$$
