
     RDKit          3D

 56 60  0  0  0  0  0  0  0  0999 V2000
   54.8380   76.6150   29.2220 C   0  0  0  0  0  0  0  0  0  0  0  0
   55.9080   77.5530   29.2270 O   0  0  0  0  0  0  0  0  0  0  0  0
   55.8740   78.5450   28.2710 C   0  0  0  0  0  0  0  0  0  0  0  0
   54.7940   78.8000   27.4100 C   0  0  0  0  0  0  0  0  0  0  0  0
   54.8250   79.8340   26.4590 C   0  0  0  0  0  0  0  0  0  0  0  0
   53.7540   80.0780   25.6130 N   0  0  0  0  0  0  0  0  0  0  0  0
   53.1880   79.0240   24.7540 C   0  0  0  0  0  0  0  0  0  0  0  0
   52.5950   79.6280   23.4610 C   0  0  0  0  0  0  0  0  0  0  0  0
   51.5110   80.6070   23.6920 N   0  0  0  0  0  0  0  0  0  0  0  0
   51.3720   81.4980   22.5450 C   0  0  0  0  0  0  0  0  0  0  0  0
   51.7230   81.3570   24.9480 C   0  0  0  0  0  0  0  0  0  0  0  0
   53.1860   81.4270   25.4520 C   0  0  0  0  0  0  0  0  0  0  0  0
   55.9890   80.6150   26.4210 C   0  0  0  0  0  0  0  0  0  0  0  0
   57.0770   80.3720   27.2700 C   0  0  0  0  0  0  0  0  0  0  0  0
   57.0450   79.3230   28.1870 C   0  0  0  0  0  0  0  0  0  0  0  0
   58.0990   79.0770   29.1030 N   0  0  0  0  0  0  0  0  0  0  0  0
   58.8790   80.0050   29.8280 C   0  0  0  0  0  0  0  0  0  0  0  0
   58.9290   79.8610   31.2030 C   0  0  0  0  0  0  0  0  0  0  0  0
   59.6850   80.7760   31.9110 C   0  0  0  0  0  0  0  0  0  0  0  0
   59.8010   80.7170   33.3660 C   0  0  0  0  0  0  0  0  0  0  0  0
   58.7580   80.9820   34.2370 C   0  0  0  0  0  0  0  0  0  0  0  0
   59.2200   80.8490   35.5210 N   0  0  0  0  0  0  0  0  0  0  0  0
   60.5500   80.5030   35.5130 C   0  0  0  0  0  0  0  0  0  0  0  0
   61.4250   80.2660   36.5660 C   0  0  0  0  0  0  0  0  0  0  0  0
   62.7090   79.9390   36.2970 N   0  0  0  0  0  0  0  0  0  0  0  0
   63.1040   79.8570   35.0080 C   0  0  0  0  0  0  0  0  0  0  0  0
   62.2840   80.0810   33.9130 C   0  0  0  0  0  0  0  0  0  0  0  0
   60.9480   80.4210   34.1780 C   0  0  0  0  0  0  0  0  0  0  0  0
   60.3610   81.7720   31.3090 N   0  0  0  0  0  0  0  0  0  0  0  0
   60.2370   81.8370   29.9800 C   0  0  0  0  0  0  0  0  0  0  0  0
   59.5250   81.0070   29.2100 N   0  0  0  0  0  0  0  0  0  0  0  0
   54.5595   76.3709   30.2578 H   0  0  0  0  0  0  0  0  0  0  0  0
   53.9716   77.0499   28.7022 H   0  0  0  0  0  0  0  0  0  0  0  0
   55.1557   75.6991   28.7022 H   0  0  0  0  0  0  0  0  0  0  0  0
   53.8951   78.1701   27.4825 H   0  0  0  0  0  0  0  0  0  0  0  0
   53.9821   78.3110   24.4876 H   0  0  0  0  0  0  0  0  0  0  0  0
   52.3842   78.5142   25.3054 H   0  0  0  0  0  0  0  0  0  0  0  0
   53.4044   80.1323   22.9128 H   0  0  0  0  0  0  0  0  0  0  0  0
   52.1532   78.7941   22.8958 H   0  0  0  0  0  0  0  0  0  0  0  0
   51.2114   82.5275   22.8977 H   0  0  0  0  0  0  0  0  0  0  0  0
   52.2873   81.4576   21.9363 H   0  0  0  0  0  0  0  0  0  0  0  0
   50.5125   81.1807   21.9363 H   0  0  0  0  0  0  0  0  0  0  0  0
   51.3708   82.3870   24.7897 H   0  0  0  0  0  0  0  0  0  0  0  0
   51.1662   80.8080   25.7217 H   0  0  0  0  0  0  0  0  0  0  0  0
   53.7908   81.9874   24.7239 H   0  0  0  0  0  0  0  0  0  0  0  0
   53.1959   81.9304   26.4300 H   0  0  0  0  0  0  0  0  0  0  0  0
   56.0500   81.4450   25.7017 H   0  0  0  0  0  0  0  0  0  0  0  0
   57.9665   81.0166   27.2120 H   0  0  0  0  0  0  0  0  0  0  0  0
   58.6750   78.3210   28.7360 H   0  0  0  0  0  0  0  0  0  0  0  0
   58.3882   79.0500   31.7128 H   0  0  0  0  0  0  0  0  0  0  0  0
   57.7320   81.2534   33.9478 H   0  0  0  0  0  0  0  0  0  0  0  0
   58.6700   80.9920   36.3560 H   0  0  0  0  0  0  0  0  0  0  0  0
   61.0770   80.3435   37.6066 H   0  0  0  0  0  0  0  0  0  0  0  0
   64.1538   79.5930   34.8127 H   0  0  0  0  0  0  0  0  0  0  0  0
   62.6628   79.9962   32.8837 H   0  0  0  0  0  0  0  0  0  0  0  0
   60.7721   82.6517   29.4702 H   0  0  0  0  0  0  0  0  0  0  0  0
  1  2  1  0
  2  3  1  0
  3  4  1  0
  4  5  2  0
  5  6  1  0
  6  7  1  0
  7  8  1  0
  8  9  1  0
  9 10  1  0
  9 11  1  0
 11 12  1  0
  5 13  1  0
 13 14  2  0
 14 15  1  0
 15 16  1  0
 16 17  1  0
 17 18  1  0
 18 19  2  0
 19 20  1  0
 20 21  2  0
 21 22  1  0
 22 23  1  0
 23 24  2  0
 24 25  1  0
 25 26  2  0
 26 27  1  0
 27 28  2  0
 19 29  1  0
 29 30  2  0
 30 31  1  0
 15  3  2  0
 31 17  2  0
 12  6  1  0
 28 20  1  0
 28 23  1  0
  1 32  1  0
  1 33  1  0
  1 34  1  0
  4 35  1  0
  7 36  1  0
  7 37  1  0
  8 38  1  0
  8 39  1  0
 10 40  1  0
 10 41  1  0
 10 42  1  0
 11 43  1  0
 11 44  1  0
 12 45  1  0
 12 46  1  0
 13 47  1  0
 14 48  1  0
 16 49  1  0
 18 50  1  0
 21 51  1  0
 22 52  1  0
 24 53  1  0
 26 54  1  0
 27 55  1  0
 30 56  1  0
M  END
>  <meeko>  (1) 
{"is_sidechain": false}

>  <smiles>  (1) 
COc1cc(N2CCN(C)CC2)ccc1Nc1cc(-c2c[nH]c3cnccc23)ncn1

>  <vina_score>  (1) 
-9.090

>  <job_id>  (1) 
0a8da2f930f48430

$$$$
