
     RDKit          3D

 62 66  0  0  0  0  0  0  0  0999 V2000
   54.2960   78.9770   24.9940 C   0  0  0  0  0  0  0  0  0  0  0  0
   53.6120   78.9070   26.3700 C   0  0  0  0  0  0  0  0  0  0  0  0
   52.5600   80.0260   26.4480 C   0  0  0  0  0  0  0  0  0  0  0  0
   52.9350   77.5340   26.5090 C   0  0  0  0  0  0  0  0  0  0  0  0
   54.6710   79.0950   27.4830 C   0  0  0  0  0  0  0  0  0  0  0  0
   54.4520   78.7320   28.6370 O   0  0  0  0  0  0  0  0  0  0  0  0
   55.8410   79.6940   27.0480 N   0  0  0  0  0  0  0  0  0  0  0  0
   56.9860   79.9980   27.8180 C   0  0  0  0  0  0  0  0  0  0  0  0
   57.8250   79.0610   28.4020 C   0  0  0  0  0  0  0  0  0  0  0  0
   58.9350   79.4850   29.1450 C   0  0  0  0  0  0  0  0  0  0  0  0
   59.1980   80.8400   29.2980 C   0  0  0  0  0  0  0  0  0  0  0  0
   60.2620   81.3570   30.0090 N   0  0  0  0  0  0  0  0  0  0  0  0
   60.4790   81.7170   31.3290 C   0  0  0  0  0  0  0  0  0  0  0  0
   59.6510   81.2960   32.3050 N   0  0  0  0  0  0  0  0  0  0  0  0
   59.8910   81.6540   33.5860 C   0  0  0  0  0  0  0  0  0  0  0  0
   60.9830   82.4570   33.8790 C   0  0  0  0  0  0  0  0  0  0  0  0
   61.5720   82.9990   35.0460 C   0  0  0  0  0  0  0  0  0  0  0  0
   62.7010   83.7010   34.6620 C   0  0  0  0  0  0  0  0  0  0  0  0
   62.7720   83.6480   33.2780 N   0  0  0  0  0  0  0  0  0  0  0  0
   61.7600   82.8490   32.8010 C   0  0  0  0  0  0  0  0  0  0  0  0
   61.5560   82.4970   31.5230 N   0  0  0  0  0  0  0  0  0  0  0  0
   63.8810   84.2790   32.5230 C   0  0  0  0  0  0  0  0  0  0  0  0
   64.9580   83.2040   32.2290 C   0  0  0  0  0  0  0  0  0  0  0  0
   66.1030   83.7050   31.3460 C   0  0  0  0  0  0  0  0  0  0  0  0
   65.5950   84.3570   30.0640 C   0  0  0  0  0  0  0  0  0  0  0  0
   64.5730   85.4540   30.3420 C   0  0  0  0  0  0  0  0  0  0  0  0
   63.4130   84.9280   31.1900 C   0  0  0  0  0  0  0  0  0  0  0  0
   64.4520   85.4180   33.4270 C   0  0  0  0  0  0  0  0  0  0  0  0
   64.6540   85.0270   34.8050 N   0  0  0  0  0  0  0  0  0  0  0  0
   63.6730   84.3600   35.4960 C   0  0  0  0  0  0  0  0  0  0  0  0
   63.6710   84.3470   36.7210 O   0  0  0  0  0  0  0  0  0  0  0  0
   58.3890   81.7660   28.7350 N   0  0  0  0  0  0  0  0  0  0  0  0
   57.3220   81.3320   28.0200 C   0  0  0  0  0  0  0  0  0  0  0  0
   55.3819   79.0881   25.1296 H   0  0  0  0  0  0  0  0  0  0  0  0
   54.0890   78.0530   24.4342 H   0  0  0  0  0  0  0  0  0  0  0  0
   53.9062   79.8399   24.4342 H   0  0  0  0  0  0  0  0  0  0  0  0
   52.3452   80.2545   27.5024 H   0  0  0  0  0  0  0  0  0  0  0  0
   52.9455   80.9272   25.9487 H   0  0  0  0  0  0  0  0  0  0  0  0
   51.6368   79.6968   25.9487 H   0  0  0  0  0  0  0  0  0  0  0  0
   52.8150   77.2906   27.5750 H   0  0  0  0  0  0  0  0  0  0  0  0
   51.9472   77.5616   26.0257 H   0  0  0  0  0  0  0  0  0  0  0  0
   53.5583   76.7672   26.0257 H   0  0  0  0  0  0  0  0  0  0  0  0
   55.8940   79.9460   26.0700 H   0  0  0  0  0  0  0  0  0  0  0  0
   57.6197   77.9870   28.2823 H   0  0  0  0  0  0  0  0  0  0  0  0
   59.6004   78.7418   29.6087 H   0  0  0  0  0  0  0  0  0  0  0  0
   61.0770   81.5050   29.4380 H   0  0  0  0  0  0  0  0  0  0  0  0
   59.2245   81.3107   34.3909 H   0  0  0  0  0  0  0  0  0  0  0  0
   61.1991   82.8830   36.0744 H   0  0  0  0  0  0  0  0  0  0  0  0
   65.3806   82.8650   33.1863 H   0  0  0  0  0  0  0  0  0  0  0  0
   64.4597   82.3921   31.6789 H   0  0  0  0  0  0  0  0  0  0  0  0
   66.6899   84.4438   31.9114 H   0  0  0  0  0  0  0  0  0  0  0  0
   66.7184   82.8378   31.0645 H   0  0  0  0  0  0  0  0  0  0  0  0
   66.4490   84.7961   29.5273 H   0  0  0  0  0  0  0  0  0  0  0  0
   65.1011   83.5797   29.4624 H   0  0  0  0  0  0  0  0  0  0  0  0
   65.0669   86.2764   30.8803 H   0  0  0  0  0  0  0  0  0  0  0  0
   64.1700   85.8061   29.3809 H   0  0  0  0  0  0  0  0  0  0  0  0
   62.7420   85.7673   31.4253 H   0  0  0  0  0  0  0  0  0  0  0  0
   62.9046   84.1477   30.6046 H   0  0  0  0  0  0  0  0  0  0  0  0
   65.4195   85.7372   33.0122 H   0  0  0  0  0  0  0  0  0  0  0  0
   63.7065   86.2268   33.4306 H   0  0  0  0  0  0  0  0  0  0  0  0
   65.2450   85.5900   35.4050 H   0  0  0  0  0  0  0  0  0  0  0  0
   56.6721   82.0938   27.5647 H   0  0  0  0  0  0  0  0  0  0  0  0
  1  2  1  0
  2  3  1  0
  2  4  1  0
  2  5  1  0
  5  6  2  0
  5  7  1  0
  7  8  1  0
  8  9  2  0
  9 10  1  0
 10 11  2  0
 11 12  1  0
 12 13  1  0
 13 14  2  0
 14 15  1  0
 15 16  2  0
 16 17  1  0
 17 18  2  0
 18 19  1  0
 19 20  1  0
 20 21  2  0
 19 22  1  0
 22 23  1  0
 23 24  1  0
 24 25  1  0
 25 26  1  0
 26 27  1  0
 22 28  1  0
 28 29  1  0
 29 30  1  0
 30 31  2  0
 11 32  1  0
 32 33  2  0
 33  8  1  0
 21 13  1  0
 27 22  1  0
 20 16  1  0
 30 18  1  0
  1 34  1  0
  1 35  1  0
  1 36  1  0
  3 37  1  0
  3 38  1  0
  3 39  1  0
  4 40  1  0
  4 41  1  0
  4 42  1  0
  7 43  1  0
  9 44  1  0
 10 45  1  0
 12 46  1  0
 15 47  1  0
 17 48  1  0
 23 49  1  0
 23 50  1  0
 24 51  1  0
 24 52  1  0
 25 53  1  0
 25 54  1  0
 26 55  1  0
 26 56  1  0
 27 57  1  0
 27 58  1  0
 28 59  1  0
 28 60  1  0
 29 61  1  0
 33 62  1  0
M  END
>  <meeko>  (1) 
{"is_sidechain": false}

>  <smiles>  (1) 
CC(C)(C)C(=O)Nc1ccc(Nc2ncc3cc4n(c3n2)C2(CCCCC2)CNC4=O)nc1

>  <vina_score>  (1) 
-7.653

>  <job_id>  (1) 
0abe840d2c886936

$$$$
