
     RDKit          3D

 70 73  0  0  0  0  0  0  0  0999 V2000
   52.9320   81.3570   23.0430 C   0  0  0  0  0  0  0  0  0  0  0  0
   52.8480   80.2280   24.0630 C   0  0  0  0  0  0  0  0  0  0  0  0
   52.9430   80.7310   25.5160 C   0  0  2  0  0  0  0  0  0  0  0  0
   52.6290   82.2390   25.6020 C   0  0  0  0  0  0  0  0  0  0  0  0
   52.9350   82.7620   26.8910 O   0  0  0  0  0  0  0  0  0  0  0  0
   54.2820   80.4710   26.0270 N   0  0  0  0  0  0  0  0  0  0  0  0
   54.5780   79.4600   26.8930 C   0  0  0  0  0  0  0  0  0  0  0  0
   55.7880   79.6070   27.5410 N   0  0  0  0  0  0  0  0  0  0  0  0
   56.1640   78.6980   28.3950 C   0  0  0  0  0  0  0  0  0  0  0  0
   57.3490   78.7400   29.1010 N   0  0  0  0  0  0  0  0  0  0  0  0
   58.4820   79.5040   28.6350 C   0  0  0  0  0  0  0  0  0  0  0  0
   59.0100   80.3560   29.7620 C   0  0  0  0  0  0  0  0  0  0  0  0
   59.9600   81.3570   29.5230 C   0  0  0  0  0  0  0  0  0  0  0  0
   60.4590   82.1360   30.5740 C   0  0  0  0  0  0  0  0  0  0  0  0
   60.0230   81.9240   31.8820 C   0  0  0  0  0  0  0  0  0  0  0  0
   60.4740   82.6600   32.9950 N   0  0  0  0  0  0  0  0  0  0  0  0
   60.0610   83.9080   33.4170 C   0  0  0  0  0  0  0  0  0  0  0  0
   59.2110   84.6090   32.8740 O   0  0  0  0  0  0  0  0  0  0  0  0
   60.7830   84.4280   34.6680 C   0  0  0  0  0  0  0  0  0  0  0  0
   61.6670   85.6320   34.3400 C   0  0  0  0  0  0  0  0  0  0  0  0
   62.9890   85.2530   33.6740 C   0  0  0  0  0  0  0  0  0  0  0  0
   63.2750   83.8550   33.7890 O   0  0  0  0  0  0  0  0  0  0  0  0
   63.0600   83.3840   35.1180 C   0  0  0  0  0  0  0  0  0  0  0  0
   61.5630   83.3270   35.4020 C   0  0  0  0  0  0  0  0  0  0  0  0
   59.0800   80.9190   32.1250 C   0  0  0  0  0  0  0  0  0  0  0  0
   58.5790   80.1400   31.0780 C   0  0  0  0  0  0  0  0  0  0  0  0
   55.3140   77.6070   28.6130 N   0  0  0  0  0  0  0  0  0  0  0  0
   55.5980   76.5800   29.4470 N   0  0  0  0  0  0  0  0  0  0  0  0
   54.5190   75.8000   29.3120 C   0  0  0  0  0  0  0  0  0  0  0  0
   53.5630   76.3160   28.3930 C   0  0  0  0  0  0  0  0  0  0  0  0
   52.2490   75.7230   27.9830 C   0  0  0  0  0  0  0  0  0  0  0  0
   52.2040   75.4350   26.4820 C   0  0  0  0  0  0  0  0  0  0  0  0
   51.0760   76.6140   28.3950 C   0  0  0  0  0  0  0  0  0  0  0  0
   54.1270   77.4980   27.9540 C   0  0  0  0  0  0  0  0  0  0  0  0
   53.7540   78.4620   27.0760 N   0  0  0  0  0  0  0  0  0  0  0  0
   53.0037   82.3209   23.5681 H   0  0  0  0  0  0  0  0  0  0  0  0
   53.8221   81.2159   22.4123 H   0  0  0  0  0  0  0  0  0  0  0  0
   52.0308   81.3492   22.4123 H   0  0  0  0  0  0  0  0  0  0  0  0
   51.8879   79.7071   23.9330 H   0  0  0  0  0  0  0  0  0  0  0  0
   53.7019   79.5573   23.8872 H   0  0  0  0  0  0  0  0  0  0  0  0
   52.2005   80.1947   26.1252 H   0  0  0  0  0  0  0  0  0  0  0  0
   53.2270   82.7724   24.8484 H   0  0  0  0  0  0  0  0  0  0  0  0
   51.5535   82.3792   25.4185 H   0  0  0  0  0  0  0  0  0  0  0  0
   52.3600   82.3010   27.5260 H   0  0  0  0  0  0  0  0  0  0  0  0
   54.8900   81.2720   26.1370 H   0  0  0  0  0  0  0  0  0  0  0  0
   57.5770   77.8640   29.5740 H   0  0  0  0  0  0  0  0  0  0  0  0
   59.2711   78.8183   28.2926 H   0  0  0  0  0  0  0  0  0  0  0  0
   58.1712   80.1501   27.8007 H   0  0  0  0  0  0  0  0  0  0  0  0
   60.3182   81.5332   28.4980 H   0  0  0  0  0  0  0  0  0  0  0  0
   61.2007   82.9214   30.3666 H   0  0  0  0  0  0  0  0  0  0  0  0
   61.2050   82.2160   33.5490 H   0  0  0  0  0  0  0  0  0  0  0  0
   60.0038   84.7675   35.3662 H   0  0  0  0  0  0  0  0  0  0  0  0
   61.1127   86.2964   33.6608 H   0  0  0  0  0  0  0  0  0  0  0  0
   61.9134   86.1223   35.2934 H   0  0  0  0  0  0  0  0  0  0  0  0
   62.9359   85.5165   32.6073 H   0  0  0  0  0  0  0  0  0  0  0  0
   63.7927   85.8037   34.1847 H   0  0  0  0  0  0  0  0  0  0  0  0
   63.4919   82.3780   35.2247 H   0  0  0  0  0  0  0  0  0  0  0  0
   63.5424   84.0681   35.8316 H   0  0  0  0  0  0  0  0  0  0  0  0
   61.1796   82.3479   35.0790 H   0  0  0  0  0  0  0  0  0  0  0  0
   61.4215   83.4803   36.4820 H   0  0  0  0  0  0  0  0  0  0  0  0
   58.7289   80.7399   33.1520 H   0  0  0  0  0  0  0  0  0  0  0  0
   57.8412   79.3518   31.2885 H   0  0  0  0  0  0  0  0  0  0  0  0
   54.3845   74.8541   29.8572 H   0  0  0  0  0  0  0  0  0  0  0  0
   52.1515   74.7652   28.5151 H   0  0  0  0  0  0  0  0  0  0  0  0
   52.0360   74.3601   26.3198 H   0  0  0  0  0  0  0  0  0  0  0  0
   51.3844   76.0075   26.0232 H   0  0  0  0  0  0  0  0  0  0  0  0
   53.1592   75.7302   26.0232 H   0  0  0  0  0  0  0  0  0  0  0  0
   51.0173   76.6586   29.4925 H   0  0  0  0  0  0  0  0  0  0  0  0
   51.2268   77.6273   27.9944 H   0  0  0  0  0  0  0  0  0  0  0  0
   50.1403   76.1969   27.9944 H   0  0  0  0  0  0  0  0  0  0  0  0
  1  2  1  0
  2  3  1  0
  3  4  1  0
  4  5  1  0
  3  6  1  0
  6  7  1  0
  7  8  1  0
  8  9  2  0
  9 10  1  0
 10 11  1  0
 11 12  1  0
 12 13  1  0
 13 14  2  0
 14 15  1  0
 15 16  1  0
 16 17  1  0
 17 18  2  0
 17 19  1  0
 19 20  1  0
 20 21  1  0
 21 22  1  0
 22 23  1  0
 23 24  1  0
 15 25  2  0
 25 26  1  0
  9 27  1  0
 27 28  1  0
 28 29  2  0
 29 30  1  0
 30 31  1  0
 31 32  1  0
 31 33  1  0
 30 34  2  0
 34 35  1  0
 35  7  2  0
 26 12  2  0
 34 27  1  0
 24 19  1  0
  1 36  1  0
  1 37  1  0
  1 38  1  0
  2 39  1  0
  2 40  1  0
  3 41  1  1
  4 42  1  0
  4 43  1  0
  5 44  1  0
  6 45  1  0
 10 46  1  0
 11 47  1  0
 11 48  1  0
 13 49  1  0
 14 50  1  0
 16 51  1  0
 19 52  1  0
 20 53  1  0
 20 54  1  0
 21 55  1  0
 21 56  1  0
 23 57  1  0
 23 58  1  0
 24 59  1  0
 24 60  1  0
 25 61  1  0
 26 62  1  0
 29 63  1  0
 31 64  1  0
 32 65  1  0
 32 66  1  0
 32 67  1  0
 33 68  1  0
 33 69  1  0
 33 70  1  0
M  END
>  <meeko>  (1) 
{"is_sidechain": false}

>  <smiles>  (1) 
CC[C@H](CO)Nc1nc(NCc2ccc(NC(=O)C3CCOCC3)cc2)n2ncc(C(C)C)c2n1

>  <vina_score>  (1) 
-8.711

>  <job_id>  (1) 
0acc73a34479f802

$$$$
