
     RDKit          3D

 41 43  0  0  0  0  0  0  0  0999 V2000
   51.8080   74.9820   25.8450 C   0  0  0  0  0  0  0  0  0  0  0  0
   52.9200   75.6380   26.4840 N   0  0  0  0  0  0  0  0  0  0  0  0
   52.7450   76.3000   27.6840 C   0  0  0  0  0  0  0  0  0  0  0  0
   51.6870   76.3090   28.3030 O   0  0  0  0  0  0  0  0  0  0  0  0
   53.9190   77.0590   28.1930 C   0  0  0  0  0  0  0  0  0  0  0  0
   54.1310   78.3580   27.7200 C   0  0  0  0  0  0  0  0  0  0  0  0
   55.2240   79.1030   28.1730 C   0  0  0  0  0  0  0  0  0  0  0  0
   56.1230   78.5760   29.1160 C   0  0  0  0  0  0  0  0  0  0  0  0
   57.2670   79.3660   29.6010 C   0  0  0  0  0  0  0  0  0  0  0  0
   57.4420   79.6250   30.9650 C   0  0  0  0  0  0  0  0  0  0  0  0
   58.5330   80.3790   31.4260 C   0  0  0  0  0  0  0  0  0  0  0  0
   59.5050   80.9030   30.5560 C   0  0  0  0  0  0  0  0  0  0  0  0
   60.5720   81.6620   31.0440 N   0  0  0  0  0  0  0  0  0  0  0  0
   60.9490   82.8570   30.2700 C   0  0  0  0  0  0  0  0  0  0  0  0
   61.8090   83.8450   31.0380 C   0  0  0  0  0  0  0  0  0  0  0  0
   62.3990   83.6600   32.1750 N   0  0  0  0  0  0  0  0  0  0  0  0
   62.2110   82.3190   32.7510 C   0  0  0  0  0  0  0  0  0  0  0  0
   60.8090   81.7550   32.4920 C   0  0  0  0  0  0  0  0  0  0  0  0
   59.3100   80.6510   29.1920 C   0  0  0  0  0  0  0  0  0  0  0  0
   58.2230   79.9000   28.7320 C   0  0  0  0  0  0  0  0  0  0  0  0
   58.1260   79.6880   27.4100 F   0  0  0  0  0  0  0  0  0  0  0  0
   55.8840   77.2750   29.5950 C   0  0  0  0  0  0  0  0  0  0  0  0
   54.7940   76.5220   29.1430 C   0  0  0  0  0  0  0  0  0  0  0  0
   51.1287   74.5813   26.6118 H   0  0  0  0  0  0  0  0  0  0  0  0
   51.2667   75.7055   25.2176 H   0  0  0  0  0  0  0  0  0  0  0  0
   52.1794   74.1583   25.2176 H   0  0  0  0  0  0  0  0  0  0  0  0
   53.7090   75.8940   25.9060 H   0  0  0  0  0  0  0  0  0  0  0  0
   53.4352   78.7952   26.9888 H   0  0  0  0  0  0  0  0  0  0  0  0
   55.3831   80.1197   27.7844 H   0  0  0  0  0  0  0  0  0  0  0  0
   56.7126   79.2313   31.6881 H   0  0  0  0  0  0  0  0  0  0  0  0
   58.6306   80.5662   32.5055 H   0  0  0  0  0  0  0  0  0  0  0  0
   61.5077   82.5307   29.3804 H   0  0  0  0  0  0  0  0  0  0  0  0
   60.0147   83.3791   30.0159 H   0  0  0  0  0  0  0  0  0  0  0  0
   61.9466   84.8329   30.5741 H   0  0  0  0  0  0  0  0  0  0  0  0
   62.9519   81.6381   32.3066 H   0  0  0  0  0  0  0  0  0  0  0  0
   62.3388   82.4043   33.8402 H   0  0  0  0  0  0  0  0  0  0  0  0
   60.7290   80.7538   32.9406 H   0  0  0  0  0  0  0  0  0  0  0  0
   60.0591   82.4223   32.9418 H   0  0  0  0  0  0  0  0  0  0  0  0
   60.0297   81.0538   28.4641 H   0  0  0  0  0  0  0  0  0  0  0  0
   56.5674   76.8408   30.3396 H   0  0  0  0  0  0  0  0  0  0  0  0
   54.6256   75.5081   29.5349 H   0  0  0  0  0  0  0  0  0  0  0  0
  1  2  1  0
  2  3  1  0
  3  4  2  0
  3  5  1  0
  5  6  1  0
  6  7  2  0
  7  8  1  0
  8  9  1  0
  9 10  1  0
 10 11  2  0
 11 12  1  0
 12 13  1  0
 13 14  1  0
 14 15  1  0
 15 16  2  0
 16 17  1  0
 17 18  1  0
 12 19  2  0
 19 20  1  0
 20 21  1  0
  8 22  2  0
 22 23  1  0
 23  5  2  0
 20  9  2  0
 18 13  1  0
  1 24  1  0
  1 25  1  0
  1 26  1  0
  2 27  1  0
  6 28  1  0
  7 29  1  0
 10 30  1  0
 11 31  1  0
 14 32  1  0
 14 33  1  0
 15 34  1  0
 17 35  1  0
 17 36  1  0
 18 37  1  0
 18 38  1  0
 19 39  1  0
 22 40  1  0
 23 41  1  0
M  END
>  <meeko>  (1) 
{"is_sidechain": false}

>  <smiles>  (1) 
CNC(=O)c1ccc(-c2ccc(N3CC=NCC3)cc2F)cc1

>  <vina_score>  (1) 
-7.863

>  <job_id>  (1) 
0ae5e177460edfe5

$$$$
