
     RDKit          3D

 42 44  0  0  0  0  0  0  0  0999 V2000
   62.2410   82.4820   30.9430 C   0  0  0  0  0  0  0  0  0  0  0  0
   61.1990   81.7470   30.2700 N   0  0  0  0  0  0  0  0  0  0  0  0
   60.0810   81.3280   30.9650 C   0  0  0  0  0  0  0  0  0  0  0  0
   59.9350   81.4930   32.1700 O   0  0  0  0  0  0  0  0  0  0  0  0
   59.0030   80.6850   30.1610 C   0  0  0  0  0  0  0  0  0  0  0  0
   58.9080   80.8550   28.7720 C   0  0  0  0  0  0  0  0  0  0  0  0
   57.8830   80.2270   28.0580 C   0  0  0  0  0  0  0  0  0  0  0  0
   56.9460   79.4330   28.7320 C   0  0  0  0  0  0  0  0  0  0  0  0
   55.8730   78.7330   27.9880 C   0  0  0  0  0  0  0  0  0  0  0  0
   55.5080   77.6370   28.4050 O   0  0  0  0  0  0  0  0  0  0  0  0
   55.3540   79.3320   26.8380 N   0  0  0  0  0  0  0  0  0  0  0  0
   55.1920   80.7880   26.7190 C   0  0  0  0  0  0  0  0  0  0  0  0
   53.7620   81.2170   27.1190 C   0  0  0  0  0  0  0  0  0  0  0  0
   52.6890   80.4600   26.4470 N   0  0  0  0  0  0  0  0  0  0  0  0
   52.2090   81.0600   25.1960 C   0  0  0  0  0  0  0  0  0  0  0  0
   52.7960   82.3100   24.6010 C   0  0  0  0  0  0  0  0  0  0  0  0
   52.9510   81.0000   23.8880 C   0  0  0  0  0  0  0  0  0  0  0  0
   52.9220   79.0090   26.5200 C   0  0  0  0  0  0  0  0  0  0  0  0
   54.3390   78.5840   26.0930 C   0  0  0  0  0  0  0  0  0  0  0  0
   57.0600   79.2280   30.1100 C   0  0  0  0  0  0  0  0  0  0  0  0
   58.0840   79.8570   30.8220 C   0  0  0  0  0  0  0  0  0  0  0  0
   62.1104   82.3899   32.0313 H   0  0  0  0  0  0  0  0  0  0  0  0
   63.2215   82.0745   30.6556 H   0  0  0  0  0  0  0  0  0  0  0  0
   62.1861   83.5424   30.6556 H   0  0  0  0  0  0  0  0  0  0  0  0
   61.1470   81.8250   29.2640 H   0  0  0  0  0  0  0  0  0  0  0  0
   59.6406   81.4830   28.2439 H   0  0  0  0  0  0  0  0  0  0  0  0
   57.8123   80.3562   26.9679 H   0  0  0  0  0  0  0  0  0  0  0  0
   55.9160   81.2864   27.3803 H   0  0  0  0  0  0  0  0  0  0  0  0
   55.3664   81.0772   25.6721 H   0  0  0  0  0  0  0  0  0  0  0  0
   53.6524   81.0792   28.2048 H   0  0  0  0  0  0  0  0  0  0  0  0
   53.6497   82.2658   26.8067 H   0  0  0  0  0  0  0  0  0  0  0  0
   51.2116   80.7446   25.5361 H   0  0  0  0  0  0  0  0  0  0  0  0
   52.1340   83.0855   24.1881 H   0  0  0  0  0  0  0  0  0  0  0  0
   53.4878   83.0884   24.9553 H   0  0  0  0  0  0  0  0  0  0  0  0
   52.4025   80.8148   22.9527 H   0  0  0  0  0  0  0  0  0  0  0  0
   53.8030   80.4202   23.5034 H   0  0  0  0  0  0  0  0  0  0  0  0
   52.7607   78.6838   27.5584 H   0  0  0  0  0  0  0  0  0  0  0  0
   52.2206   78.5365   25.8166 H   0  0  0  0  0  0  0  0  0  0  0  0
   54.4673   77.5092   26.2888 H   0  0  0  0  0  0  0  0  0  0  0  0
   54.4620   78.7957   25.0206 H   0  0  0  0  0  0  0  0  0  0  0  0
   56.3460   78.5738   30.6318 H   0  0  0  0  0  0  0  0  0  0  0  0
   58.1701   79.7020   31.9076 H   0  0  0  0  0  0  0  0  0  0  0  0
  1  2  1  0
  2  3  1  0
  3  4  2  0
  3  5  1  0
  5  6  1  0
  6  7  2  0
  7  8  1  0
  8  9  1  0
  9 10  2  0
  9 11  1  0
 11 12  1  0
 12 13  1  0
 13 14  1  0
 14 15  1  0
 15 16  1  0
 16 17  1  0
 14 18  1  0
 18 19  1  0
  8 20  2  0
 20 21  1  0
 21  5  2  0
 19 11  1  0
 17 15  1  0
  1 22  1  0
  1 23  1  0
  1 24  1  0
  2 25  1  0
  6 26  1  0
  7 27  1  0
 12 28  1  0
 12 29  1  0
 13 30  1  0
 13 31  1  0
 15 32  1  0
 16 33  1  0
 16 34  1  0
 17 35  1  0
 17 36  1  0
 18 37  1  0
 18 38  1  0
 19 39  1  0
 19 40  1  0
 20 41  1  0
 21 42  1  0
M  END
>  <meeko>  (1) 
{"is_sidechain": false}

>  <smiles>  (1) 
CNC(=O)c1ccc(C(=O)N2CCN(C3CC3)CC2)cc1

>  <vina_score>  (1) 
-7.109

>  <job_id>  (1) 
0b1e3bdaa8d81b7f

$$$$
