
     RDKit          3D

 42 43  0  0  0  0  0  0  0  0999 V2000
   60.4090   84.1440   31.3950 C   0  0  0  0  0  0  0  0  0  0  0  0
   60.8580   82.9270   31.0470 C   0  0  0  0  0  0  0  0  0  0  0  0
   62.3300   82.6190   31.0200 C   0  0  0  0  0  0  0  0  0  0  0  0
   59.9200   81.8420   30.6900 C   0  0  0  0  0  0  0  0  0  0  0  0
   59.0670   81.2660   31.6320 C   0  0  0  0  0  0  0  0  0  0  0  0
   58.2060   80.2320   31.2590 C   0  0  0  0  0  0  0  0  0  0  0  0
   58.2040   79.7810   29.9440 C   0  0  0  0  0  0  0  0  0  0  0  0
   57.3800   78.7320   29.5190 N   0  0  0  0  0  0  0  0  0  0  0  0
   56.2500   78.7620   28.6730 C   0  0  0  0  0  0  0  0  0  0  0  0
   55.1500   77.9070   28.8380 C   0  0  0  0  0  0  0  0  0  0  0  0
   54.0470   77.9820   27.9820 C   0  0  0  0  0  0  0  0  0  0  0  0
   52.9340   77.1870   28.0690 O   0  0  0  0  0  0  0  0  0  0  0  0
   53.1270   75.7800   28.0190 C   0  0  0  0  0  0  0  0  0  0  0  0
   54.0440   78.9490   26.9640 C   0  0  0  0  0  0  0  0  0  0  0  0
   52.9800   79.0030   26.0890 O   0  0  0  0  0  0  0  0  0  0  0  0
   53.3100   78.3140   24.8850 C   0  0  0  0  0  0  0  0  0  0  0  0
   55.1350   79.8100   26.7730 C   0  0  0  0  0  0  0  0  0  0  0  0
   55.0340   80.7030   25.7380 O   0  0  0  0  0  0  0  0  0  0  0  0
   55.5600   82.0060   25.9480 C   0  0  0  0  0  0  0  0  0  0  0  0
   56.2240   79.7160   27.6430 C   0  0  0  0  0  0  0  0  0  0  0  0
   59.0350   80.2950   29.0190 N   0  0  0  0  0  0  0  0  0  0  0  0
   59.8620   81.3010   29.4060 C   0  0  0  0  0  0  0  0  0  0  0  0
   59.3282   84.3484   31.4083 H   0  0  0  0  0  0  0  0  0  0  0  0
   61.1220   84.9363   31.6668 H   0  0  0  0  0  0  0  0  0  0  0  0
   62.7071   82.5401   32.0503 H   0  0  0  0  0  0  0  0  0  0  0  0
   62.4958   81.6667   30.4950 H   0  0  0  0  0  0  0  0  0  0  0  0
   62.8637   83.4249   30.4950 H   0  0  0  0  0  0  0  0  0  0  0  0
   59.0728   81.6273   32.6709 H   0  0  0  0  0  0  0  0  0  0  0  0
   57.5334   79.7771   32.0011 H   0  0  0  0  0  0  0  0  0  0  0  0
   57.9950   77.9520   29.2960 H   0  0  0  0  0  0  0  0  0  0  0  0
   55.1554   77.1673   29.6521 H   0  0  0  0  0  0  0  0  0  0  0  0
   53.1818   75.3808   29.0425 H   0  0  0  0  0  0  0  0  0  0  0  0
   52.2845   75.3130   27.4879 H   0  0  0  0  0  0  0  0  0  0  0  0
   54.0641   75.5571   27.4879 H   0  0  0  0  0  0  0  0  0  0  0  0
   53.7731   77.3471   25.1310 H   0  0  0  0  0  0  0  0  0  0  0  0
   52.3957   78.1437   24.2976 H   0  0  0  0  0  0  0  0  0  0  0  0
   54.0158   78.9197   24.2976 H   0  0  0  0  0  0  0  0  0  0  0  0
   55.6384   82.2001   27.0279 H   0  0  0  0  0  0  0  0  0  0  0  0
   56.5573   82.0771   25.4893 H   0  0  0  0  0  0  0  0  0  0  0  0
   54.8916   82.7496   25.4893 H   0  0  0  0  0  0  0  0  0  0  0  0
   57.0757   80.4011   27.5190 H   0  0  0  0  0  0  0  0  0  0  0  0
   60.5385   81.7216   28.6474 H   0  0  0  0  0  0  0  0  0  0  0  0
  1  2  2  0
  2  3  1  0
  2  4  1  0
  4  5  2  0
  5  6  1  0
  6  7  2  0
  7  8  1  0
  8  9  1  0
  9 10  1  0
 10 11  2  0
 11 12  1  0
 12 13  1  0
 11 14  1  0
 14 15  1  0
 15 16  1  0
 14 17  2  0
 17 18  1  0
 18 19  1  0
 17 20  1  0
  7 21  1  0
 21 22  2  0
 22  4  1  0
 20  9  2  0
  1 23  1  0
  1 24  1  0
  3 25  1  0
  3 26  1  0
  3 27  1  0
  5 28  1  0
  6 29  1  0
  8 30  1  0
 10 31  1  0
 13 32  1  0
 13 33  1  0
 13 34  1  0
 16 35  1  0
 16 36  1  0
 16 37  1  0
 19 38  1  0
 19 39  1  0
 19 40  1  0
 20 41  1  0
 22 42  1  0
M  END
>  <meeko>  (1) 
{"is_sidechain": false}

>  <smiles>  (1) 
C=C(C)c1ccc(Nc2cc(OC)c(OC)c(OC)c2)nc1

>  <vina_score>  (1) 
-7.213

>  <job_id>  (1) 
0b2c385c2556369c

$$$$
