
     RDKit          3D

 37 38  0  0  0  0  0  0  0  0999 V2000
   58.5580   79.7600   30.4600 C   0  0  0  0  0  0  0  0  0  0  0  0
   57.5550   79.2600   29.4550 C   0  0  0  0  0  0  0  0  0  0  0  0
   57.9890   79.3970   28.0200 C   0  0  0  0  0  0  0  0  0  0  0  0
   56.3850   78.7320   29.8620 C   0  0  0  0  0  0  0  0  0  0  0  0
   55.3310   78.2260   28.9810 C   0  0  0  0  0  0  0  0  0  0  0  0
   54.7610   76.9750   29.2270 C   0  0  0  0  0  0  0  0  0  0  0  0
   53.7530   76.4910   28.3950 C   0  0  0  0  0  0  0  0  0  0  0  0
   53.3090   77.2580   27.3150 C   0  0  0  0  0  0  0  0  0  0  0  0
   53.8630   78.5210   27.0470 C   0  0  0  0  0  0  0  0  0  0  0  0
   53.3960   79.3270   25.9060 C   0  0  0  0  0  0  0  0  0  0  0  0
   52.9620   80.6530   26.0890 C   0  0  0  0  0  0  0  0  0  0  0  0
   52.5190   81.4240   25.0110 C   0  0  0  0  0  0  0  0  0  0  0  0
   52.4990   80.8670   23.7320 C   0  0  0  0  0  0  0  0  0  0  0  0
   51.9440   81.8300   22.3520 S   0  0  0  0  0  0  0  0  0  0  0  0
   50.3310   81.3570   22.2400 N   0  0  0  0  0  0  0  0  0  0  0  0
   51.9120   83.2210   22.7440 O   0  0  0  0  0  0  0  0  0  0  0  0
   52.6280   81.3710   21.1680 O   0  0  0  0  0  0  0  0  0  0  0  0
   52.9350   79.5570   23.5200 C   0  0  0  0  0  0  0  0  0  0  0  0
   53.3760   78.7950   24.6040 C   0  0  0  0  0  0  0  0  0  0  0  0
   54.8780   78.9920   27.8980 C   0  0  0  0  0  0  0  0  0  0  0  0
   58.1826   79.5729   31.4769 H   0  0  0  0  0  0  0  0  0  0  0  0
   59.5128   79.2324   30.3187 H   0  0  0  0  0  0  0  0  0  0  0  0
   58.7114   80.8400   30.3187 H   0  0  0  0  0  0  0  0  0  0  0  0
   59.0374   79.7280   27.9840 H   0  0  0  0  0  0  0  0  0  0  0  0
   57.8937   78.4251   27.5137 H   0  0  0  0  0  0  0  0  0  0  0  0
   57.3530   80.1381   27.5137 H   0  0  0  0  0  0  0  0  0  0  0  0
   56.2065   78.6763   30.9460 H   0  0  0  0  0  0  0  0  0  0  0  0
   55.1080   76.3710   30.0783 H   0  0  0  0  0  0  0  0  0  0  0  0
   53.3067   75.5044   28.5888 H   0  0  0  0  0  0  0  0  0  0  0  0
   52.5131   76.8669   26.6642 H   0  0  0  0  0  0  0  0  0  0  0  0
   52.9716   81.0903   27.0983 H   0  0  0  0  0  0  0  0  0  0  0  0
   52.1889   82.4613   25.1695 H   0  0  0  0  0  0  0  0  0  0  0  0
   49.7520   82.0200   21.7270 H   0  0  0  0  0  0  0  0  0  0  0  0
   50.2910   80.4210   21.8350 H   0  0  0  0  0  0  0  0  0  0  0  0
   52.9310   79.1288   22.5068 H   0  0  0  0  0  0  0  0  0  0  0  0
   53.7134   77.7614   24.4369 H   0  0  0  0  0  0  0  0  0  0  0  0
   55.3248   79.9795   27.7106 H   0  0  0  0  0  0  0  0  0  0  0  0
  1  2  1  0
  2  3  1  0
  2  4  2  3
  4  5  1  0
  5  6  1  0
  6  7  2  0
  7  8  1  0
  8  9  2  0
  9 10  1  0
 10 11  1  0
 11 12  2  0
 12 13  1  0
 13 14  1  0
 14 15  1  0
 14 16  2  0
 14 17  2  0
 13 18  2  0
 18 19  1  0
  9 20  1  0
 20  5  2  0
 19 10  2  0
  1 21  1  0
  1 22  1  0
  1 23  1  0
  3 24  1  0
  3 25  1  0
  3 26  1  0
  4 27  1  0
  6 28  1  0
  7 29  1  0
  8 30  1  0
 11 31  1  0
 12 32  1  0
 15 33  1  0
 15 34  1  0
 18 35  1  0
 19 36  1  0
 20 37  1  0
M  END
>  <meeko>  (1) 
{"is_sidechain": false}

>  <smiles>  (1) 
CC(C)=Cc1cccc(-c2ccc(S(N)(=O)=O)cc2)c1

>  <vina_score>  (1) 
-8.740

>  <job_id>  (1) 
0b694e168d1e8a9c

$$$$
