
     RDKit          3D

 40 41  0  0  0  0  0  0  0  0999 V2000
   51.0970   76.4820   28.4800 C   0  0  0  0  0  0  0  0  0  0  0  0
   52.3720   75.8030   27.9750 C   0  0  0  0  0  0  0  0  0  0  0  0
   52.2150   75.3570   26.5190 C   0  0  0  0  0  0  0  0  0  0  0  0
   53.5910   76.6930   28.1570 C   0  0  0  0  0  0  0  0  0  0  0  0
   54.6330   76.3440   29.0310 C   0  0  0  0  0  0  0  0  0  0  0  0
   55.7440   77.1790   29.1880 C   0  0  0  0  0  0  0  0  0  0  0  0
   55.8300   78.3720   28.4630 C   0  0  0  0  0  0  0  0  0  0  0  0
   56.9960   79.2910   28.5980 C   0  0  0  0  0  0  0  0  0  0  0  0
   57.4380   79.8220   27.5860 O   0  0  0  0  0  0  0  0  0  0  0  0
   57.4860   79.4220   29.8860 N   0  0  0  0  0  0  0  0  0  0  0  0
   58.5580   80.2320   30.3150 C   0  0  0  0  0  0  0  0  0  0  0  0
   58.7810   80.3140   31.6990 C   0  0  0  0  0  0  0  0  0  0  0  0
   59.8180   81.0990   32.2120 C   0  0  0  0  0  0  0  0  0  0  0  0
   60.6340   81.8120   31.3350 C   0  0  0  0  0  0  0  0  0  0  0  0
   61.9560   82.8120   31.9620 S   0  0  0  0  0  0  0  0  0  0  0  0
   63.0060   82.8500   30.6450 N   0  0  0  0  0  0  0  0  0  0  0  0
   62.6040   82.0950   33.0320 O   0  0  0  0  0  0  0  0  0  0  0  0
   61.4770   84.1680   32.1080 O   0  0  0  0  0  0  0  0  0  0  0  0
   60.4350   81.7320   29.9560 C   0  0  0  0  0  0  0  0  0  0  0  0
   59.3920   80.9480   29.4510 C   0  0  0  0  0  0  0  0  0  0  0  0
   54.7880   78.7390   27.6070 C   0  0  0  0  0  0  0  0  0  0  0  0
   53.6800   77.9020   27.4520 C   0  0  0  0  0  0  0  0  0  0  0  0
   51.0936   76.4838   29.5800 H   0  0  0  0  0  0  0  0  0  0  0  0
   51.0626   77.5179   28.1115 H   0  0  0  0  0  0  0  0  0  0  0  0
   50.2183   75.9324   28.1115 H   0  0  0  0  0  0  0  0  0  0  0  0
   52.5353   74.9033   28.5864 H   0  0  0  0  0  0  0  0  0  0  0  0
   51.8499   74.3198   26.4906 H   0  0  0  0  0  0  0  0  0  0  0  0
   51.4940   76.0136   26.0101 H   0  0  0  0  0  0  0  0  0  0  0  0
   53.1883   75.4172   26.0101 H   0  0  0  0  0  0  0  0  0  0  0  0
   54.5749   75.4035   29.5985 H   0  0  0  0  0  0  0  0  0  0  0  0
   56.5500   76.8975   29.8816 H   0  0  0  0  0  0  0  0  0  0  0  0
   57.0780   78.8230   30.5910 H   0  0  0  0  0  0  0  0  0  0  0  0
   58.1318   79.7538   32.3880 H   0  0  0  0  0  0  0  0  0  0  0  0
   59.9884   81.1535   33.2974 H   0  0  0  0  0  0  0  0  0  0  0  0
   63.8810   83.3360   30.8390 H   0  0  0  0  0  0  0  0  0  0  0  0
   63.1610   81.8950   30.3190 H   0  0  0  0  0  0  0  0  0  0  0  0
   61.0949   82.2826   29.2695 H   0  0  0  0  0  0  0  0  0  0  0  0
   59.2267   80.8945   28.3648 H   0  0  0  0  0  0  0  0  0  0  0  0
   54.8403   79.6886   27.0542 H   0  0  0  0  0  0  0  0  0  0  0  0
   52.8685   78.1946   26.7694 H   0  0  0  0  0  0  0  0  0  0  0  0
  1  2  1  0
  2  3  1  0
  2  4  1  0
  4  5  1  0
  5  6  2  0
  6  7  1  0
  7  8  1  0
  8  9  2  0
  8 10  1  0
 10 11  1  0
 11 12  1  0
 12 13  2  0
 13 14  1  0
 14 15  1  0
 15 16  1  0
 15 17  2  0
 15 18  2  0
 14 19  2  0
 19 20  1  0
  7 21  2  0
 21 22  1  0
 22  4  2  0
 20 11  2  0
  1 23  1  0
  1 24  1  0
  1 25  1  0
  2 26  1  0
  3 27  1  0
  3 28  1  0
  3 29  1  0
  5 30  1  0
  6 31  1  0
 10 32  1  0
 12 33  1  0
 13 34  1  0
 16 35  1  0
 16 36  1  0
 19 37  1  0
 20 38  1  0
 21 39  1  0
 22 40  1  0
M  END
>  <meeko>  (1) 
{"is_sidechain": false}

>  <smiles>  (1) 
CC(C)c1ccc(C(=O)Nc2ccc(S(N)(=O)=O)cc2)cc1

>  <vina_score>  (1) 
-7.989

>  <job_id>  (1) 
0b78d0db69113845

$$$$
