
     RDKit          3D

 44 46  0  0  0  0  0  0  0  0999 V2000
   65.7690   82.7630   31.2890 C   0  0  0  0  0  0  0  0  0  0  0  0
   64.4960   83.0360   31.9510 N   0  0  0  0  0  0  0  0  0  0  0  0
   63.6300   83.9060   31.1460 C   0  0  0  0  0  0  0  0  0  0  0  0
   62.3560   83.2290   30.6440 C   0  0  0  0  0  0  0  0  0  0  0  0
   61.5370   82.6700   31.8190 C   0  0  0  0  0  0  0  0  0  0  0  0
   60.4440   81.7360   31.3260 C   0  0  0  0  0  0  0  0  0  0  0  0
   59.5670   81.0920   32.2070 C   0  0  0  0  0  0  0  0  0  0  0  0
   58.5730   80.2320   31.7260 C   0  0  0  0  0  0  0  0  0  0  0  0
   58.4380   79.9900   30.3530 C   0  0  0  0  0  0  0  0  0  0  0  0
   57.4080   79.1140   29.9510 N   0  0  0  0  0  0  0  0  0  0  0  0
   56.7140   79.1310   28.7550 C   0  0  0  0  0  0  0  0  0  0  0  0
   56.9130   79.8650   27.7940 O   0  0  0  0  0  0  0  0  0  0  0  0
   55.6400   78.1030   28.6400 C   0  0  0  0  0  0  0  0  0  0  0  0
   55.7420   76.8560   29.2760 C   0  0  0  0  0  0  0  0  0  0  0  0
   54.7100   75.9240   29.1450 C   0  0  0  0  0  0  0  0  0  0  0  0
   53.5830   76.2430   28.3950 C   0  0  0  0  0  0  0  0  0  0  0  0
   52.5970   75.3460   28.2740 F   0  0  0  0  0  0  0  0  0  0  0  0
   53.4620   77.4820   27.7750 C   0  0  0  0  0  0  0  0  0  0  0  0
   54.4900   78.4170   27.9010 C   0  0  0  0  0  0  0  0  0  0  0  0
   59.3090   80.6280   29.4730 C   0  0  0  0  0  0  0  0  0  0  0  0
   60.3030   81.4900   29.9540 C   0  0  0  0  0  0  0  0  0  0  0  0
   62.4370   82.0320   32.8960 C   0  0  0  0  0  0  0  0  0  0  0  0
   63.8580   81.7900   32.3910 C   0  0  0  0  0  0  0  0  0  0  0  0
   66.5482   82.5959   32.0473 H   0  0  0  0  0  0  0  0  0  0  0  0
   65.6704   81.8656   30.6606 H   0  0  0  0  0  0  0  0  0  0  0  0
   66.0471   83.6219   30.6606 H   0  0  0  0  0  0  0  0  0  0  0  0
   63.3416   84.7708   31.7616 H   0  0  0  0  0  0  0  0  0  0  0  0
   64.2087   84.1914   30.2551 H   0  0  0  0  0  0  0  0  0  0  0  0
   61.7475   83.9648   30.0978 H   0  0  0  0  0  0  0  0  0  0  0  0
   62.6359   82.3969   29.9812 H   0  0  0  0  0  0  0  0  0  0  0  0
   61.0330   83.5133   32.3138 H   0  0  0  0  0  0  0  0  0  0  0  0
   59.6602   81.2638   33.2895 H   0  0  0  0  0  0  0  0  0  0  0  0
   57.8899   79.7405   32.4344 H   0  0  0  0  0  0  0  0  0  0  0  0
   57.2110   78.3550   30.5880 H   0  0  0  0  0  0  0  0  0  0  0  0
   56.6317   76.6135   29.8756 H   0  0  0  0  0  0  0  0  0  0  0  0
   54.7883   74.9414   29.6332 H   0  0  0  0  0  0  0  0  0  0  0  0
   52.5625   77.7231   27.1896 H   0  0  0  0  0  0  0  0  0  0  0  0
   54.3984   79.4020   27.4200 H   0  0  0  0  0  0  0  0  0  0  0  0
   59.2155   80.4535   28.3910 H   0  0  0  0  0  0  0  0  0  0  0  0
   60.9836   81.9815   29.2432 H   0  0  0  0  0  0  0  0  0  0  0  0
   62.4798   82.7043   33.7656 H   0  0  0  0  0  0  0  0  0  0  0  0
   62.0034   81.0573   33.1644 H   0  0  0  0  0  0  0  0  0  0  0  0
   64.4554   81.3510   33.2036 H   0  0  0  0  0  0  0  0  0  0  0  0
   63.8048   81.1085   31.5292 H   0  0  0  0  0  0  0  0  0  0  0  0
  1  2  1  0
  2  3  1  0
  3  4  1  0
  4  5  1  0
  5  6  1  0
  6  7  1  0
  7  8  2  0
  8  9  1  0
  9 10  1  0
 10 11  1  0
 11 12  2  0
 11 13  1  0
 13 14  1  0
 14 15  2  0
 15 16  1  0
 16 17  1  0
 16 18  2  0
 18 19  1  0
  9 20  2  0
 20 21  1  0
  5 22  1  0
 22 23  1  0
 23  2  1  0
 21  6  2  0
 19 13  2  0
  1 24  1  0
  1 25  1  0
  1 26  1  0
  3 27  1  0
  3 28  1  0
  4 29  1  0
  4 30  1  0
  5 31  1  0
  7 32  1  0
  8 33  1  0
 10 34  1  0
 14 35  1  0
 15 36  1  0
 18 37  1  0
 19 38  1  0
 20 39  1  0
 21 40  1  0
 22 41  1  0
 22 42  1  0
 23 43  1  0
 23 44  1  0
M  END
>  <meeko>  (1) 
{"is_sidechain": false}

>  <smiles>  (1) 
CN1CCC(c2ccc(NC(=O)c3ccc(F)cc3)cc2)CC1

>  <vina_score>  (1) 
-8.281

>  <job_id>  (1) 
0b97e2edb69ba98d

$$$$
