
     RDKit          3D

 65 68  0  0  0  0  0  0  0  0999 V2000
   62.5440   82.2360   32.5130 C   0  0  0  0  0  0  0  0  0  0  0  0
   62.2360   82.5680   31.1200 N   0  0  0  0  0  0  0  0  0  0  0  0
   63.1510   83.6110   30.6450 C   0  0  0  0  0  0  0  0  0  0  0  0
   60.8300   82.9920   31.0020 C   0  0  0  0  0  0  0  0  0  0  0  0
   59.8870   81.8650   30.6690 C   0  0  0  0  0  0  0  0  0  0  0  0
   59.0570   81.2920   31.6300 C   0  0  0  0  0  0  0  0  0  0  0  0
   58.2170   80.2330   31.2790 C   0  0  0  0  0  0  0  0  0  0  0  0
   58.2160   79.7530   29.9760 C   0  0  0  0  0  0  0  0  0  0  0  0
   57.4270   78.7120   29.5260 N   0  0  0  0  0  0  0  0  0  0  0  0
   56.2650   78.6110   28.7790 C   0  0  0  0  0  0  0  0  0  0  0  0
   55.5970   77.4440   28.6910 N   0  0  0  0  0  0  0  0  0  0  0  0
   54.4670   77.3710   27.9530 C   0  0  0  0  0  0  0  0  0  0  0  0
   54.0120   78.5000   27.2870 C   0  0  0  0  0  0  0  0  0  0  0  0
   52.9350   78.8310   26.4400 C   0  0  0  0  0  0  0  0  0  0  0  0
   53.0700   80.1600   26.0530 C   0  0  0  0  0  0  0  0  0  0  0  0
   52.1860   80.8370   25.1290 C   0  0  0  0  0  0  0  0  0  0  0  0
   50.9920   80.9830   25.3540 O   0  0  0  0  0  0  0  0  0  0  0  0
   52.7970   81.2040   23.9510 N   0  0  0  0  0  0  0  0  0  0  0  0
   52.0800   81.6710   22.7540 C   0  0  0  0  0  0  0  0  0  0  0  0
   52.9350   81.4430   21.4970 C   0  0  0  0  0  0  0  0  0  0  0  0
   50.7150   80.9820   22.5880 C   0  0  0  0  0  0  0  0  0  0  0  0
   51.8350   83.1830   22.9160 C   0  0  0  0  0  0  0  0  0  0  0  0
   54.1530   80.6730   26.7520 N   0  0  0  0  0  0  0  0  0  0  0  0
   54.6200   82.0460   26.8650 C   0  0  0  0  0  0  0  0  0  0  0  0
   53.5770   83.1790   26.8950 C   0  0  0  0  0  0  0  0  0  0  0  0
   54.0810   84.2320   25.9100 C   0  0  0  0  0  0  0  0  0  0  0  0
   55.5700   83.9580   25.7710 C   0  0  0  0  0  0  0  0  0  0  0  0
   55.6490   82.4410   25.8010 C   0  0  0  0  0  0  0  0  0  0  0  0
   54.7660   79.6450   27.4480 C   0  0  0  0  0  0  0  0  0  0  0  0
   55.8910   79.7520   28.1740 N   0  0  0  0  0  0  0  0  0  0  0  0
   59.0220   80.2950   29.0350 N   0  0  0  0  0  0  0  0  0  0  0  0
   59.8270   81.3250   29.3930 C   0  0  0  0  0  0  0  0  0  0  0  0
   61.9503   82.8759   33.1823 H   0  0  0  0  0  0  0  0  0  0  0  0
   62.2980   81.1805   32.7014 H   0  0  0  0  0  0  0  0  0  0  0  0
   63.6149   82.4022   32.7014 H   0  0  0  0  0  0  0  0  0  0  0  0
   63.6013   84.1243   31.5074 H   0  0  0  0  0  0  0  0  0  0  0  0
   63.9442   83.1532   30.0356 H   0  0  0  0  0  0  0  0  0  0  0  0
   62.5939   84.3378   30.0356 H   0  0  0  0  0  0  0  0  0  0  0  0
   60.5186   83.4348   31.9596 H   0  0  0  0  0  0  0  0  0  0  0  0
   60.7784   83.7122   30.1722 H   0  0  0  0  0  0  0  0  0  0  0  0
   59.0633   81.6725   32.6621 H   0  0  0  0  0  0  0  0  0  0  0  0
   57.5572   79.7798   32.0335 H   0  0  0  0  0  0  0  0  0  0  0  0
   57.7820   77.8120   29.8030 H   0  0  0  0  0  0  0  0  0  0  0  0
   53.9123   76.4238   27.8809 H   0  0  0  0  0  0  0  0  0  0  0  0
   52.1243   78.1524   26.1363 H   0  0  0  0  0  0  0  0  0  0  0  0
   53.6870   80.7530   23.7830 H   0  0  0  0  0  0  0  0  0  0  0  0
   53.9583   81.1701   21.7942 H   0  0  0  0  0  0  0  0  0  0  0  0
   52.4978   80.6301   20.8987 H   0  0  0  0  0  0  0  0  0  0  0  0
   52.9607   82.3657   20.8987 H   0  0  0  0  0  0  0  0  0  0  0  0
   50.2897   80.7673   23.5795 H   0  0  0  0  0  0  0  0  0  0  0  0
   50.0348   81.6448   22.0329 H   0  0  0  0  0  0  0  0  0  0  0  0
   50.8443   80.0412   22.0329 H   0  0  0  0  0  0  0  0  0  0  0  0
   51.7941   83.4353   23.9859 H   0  0  0  0  0  0  0  0  0  0  0  0
   52.6545   83.7404   22.4389 H   0  0  0  0  0  0  0  0  0  0  0  0
   50.8814   83.4531   22.4389 H   0  0  0  0  0  0  0  0  0  0  0  0
   55.0569   81.9797   27.8723 H   0  0  0  0  0  0  0  0  0  0  0  0
   52.5921   82.8018   26.5824 H   0  0  0  0  0  0  0  0  0  0  0  0
   53.4578   83.5940   27.9067 H   0  0  0  0  0  0  0  0  0  0  0  0
   53.5758   84.1263   24.9386 H   0  0  0  0  0  0  0  0  0  0  0  0
   53.8795   85.2554   26.2593 H   0  0  0  0  0  0  0  0  0  0  0  0
   55.9568   84.3543   24.8205 H   0  0  0  0  0  0  0  0  0  0  0  0
   56.1716   84.4366   26.5577 H   0  0  0  0  0  0  0  0  0  0  0  0
   55.3846   82.0148   24.8220 H   0  0  0  0  0  0  0  0  0  0  0  0
   56.6599   82.0707   26.0267 H   0  0  0  0  0  0  0  0  0  0  0  0
   60.4761   81.7618   28.6198 H   0  0  0  0  0  0  0  0  0  0  0  0
  1  2  1  0
  2  3  1  0
  2  4  1  0
  4  5  1  0
  5  6  2  0
  6  7  1  0
  7  8  2  0
  8  9  1  0
  9 10  1  0
 10 11  2  0
 11 12  1  0
 12 13  2  0
 13 14  1  0
 14 15  2  0
 15 16  1  0
 16 17  2  0
 16 18  1  0
 18 19  1  0
 19 20  1  0
 19 21  1  0
 19 22  1  0
 15 23  1  0
 23 24  1  0
 24 25  1  0
 25 26  1  0
 26 27  1  0
 27 28  1  0
 23 29  1  0
 29 30  2  0
  8 31  1  0
 31 32  2  0
 32  5  1  0
 30 10  1  0
 29 13  1  0
 28 24  1  0
  1 33  1  0
  1 34  1  0
  1 35  1  0
  3 36  1  0
  3 37  1  0
  3 38  1  0
  4 39  1  0
  4 40  1  0
  6 41  1  0
  7 42  1  0
  9 43  1  0
 12 44  1  0
 14 45  1  0
 18 46  1  0
 20 47  1  0
 20 48  1  0
 20 49  1  0
 21 50  1  0
 21 51  1  0
 21 52  1  0
 22 53  1  0
 22 54  1  0
 22 55  1  0
 24 56  1  0
 25 57  1  0
 25 58  1  0
 26 59  1  0
 26 60  1  0
 27 61  1  0
 27 62  1  0
 28 63  1  0
 28 64  1  0
 32 65  1  0
M  END
>  <meeko>  (1) 
{"is_sidechain": false}

>  <smiles>  (1) 
CN(C)Cc1ccc(Nc2ncc3cc(C(=O)NC(C)(C)C)n(C4CCCC4)c3n2)nc1

>  <vina_score>  (1) 
-7.614

>  <job_id>  (1) 
0c13def6a9e611f6

$$$$
