
     RDKit          3D

 69 73  0  0  0  0  0  0  0  0999 V2000
   51.9130   83.2000   22.6280 C   0  0  0  0  0  0  0  0  0  0  0  0
   52.3940   82.0640   23.4540 C   0  0  0  0  0  0  0  0  0  0  0  0
   52.3930   80.8140   23.0380 N   0  0  0  0  0  0  0  0  0  0  0  0
   52.9120   80.0650   24.0630 C   0  0  0  0  0  0  0  0  0  0  0  0
   53.1430   78.6840   24.1550 C   0  0  0  0  0  0  0  0  0  0  0  0
   52.8420   77.8620   23.1400 F   0  0  0  0  0  0  0  0  0  0  0  0
   53.7020   78.1500   25.3190 C   0  0  0  0  0  0  0  0  0  0  0  0
   54.0490   78.9610   26.4150 C   0  0  0  0  0  0  0  0  0  0  0  0
   54.6400   78.3530   27.6290 C   0  0  0  0  0  0  0  0  0  0  0  0
   55.9240   78.7150   27.8900 N   0  0  0  0  0  0  0  0  0  0  0  0
   56.5370   78.2040   28.9730 C   0  0  0  0  0  0  0  0  0  0  0  0
   57.8420   78.6170   29.1630 N   0  0  0  0  0  0  0  0  0  0  0  0
   58.4440   79.7800   29.6010 C   0  0  0  0  0  0  0  0  0  0  0  0
   58.8520   80.8150   28.7700 C   0  0  0  0  0  0  0  0  0  0  0  0
   59.4520   81.9490   29.3190 C   0  0  0  0  0  0  0  0  0  0  0  0
   59.6460   82.0310   30.6960 C   0  0  0  0  0  0  0  0  0  0  0  0
   59.2010   80.9630   31.4680 C   0  0  0  0  0  0  0  0  0  0  0  0
   58.6180   79.8560   30.9400 N   0  0  0  0  0  0  0  0  0  0  0  0
   59.4110   80.9700   32.9560 C   0  0  0  0  0  0  0  0  0  0  0  0
   59.6900   82.3770   33.4960 C   0  0  0  0  0  0  0  0  0  0  0  0
   60.7470   83.0300   32.6990 N   0  0  0  0  0  0  0  0  0  0  0  0
   61.1890   84.3050   33.2920 C   0  0  0  0  0  0  0  0  0  0  0  0
   62.1900   85.0620   32.4230 C   0  0  0  0  0  0  0  0  0  0  0  0
   63.8020   84.2900   32.3450 S   0  0  0  0  0  0  0  0  0  0  0  0
   64.9520   85.6530   32.2880 C   0  0  0  0  0  0  0  0  0  0  0  0
   64.0150   83.5940   33.6000 O   0  0  0  0  0  0  0  0  0  0  0  0
   63.8650   83.5940   30.9700 N   0  0  0  0  0  0  0  0  0  0  0  0
   64.9510   82.6460   30.8020 C   0  0  0  0  0  0  0  0  0  0  0  0
   65.8350   81.9150   30.6470 N   0  0  0  0  0  0  0  0  0  0  0  0
   60.2400   83.2610   31.3280 C   0  0  0  0  0  0  0  0  0  0  0  0
   55.9350   77.3520   29.8160 N   0  0  0  0  0  0  0  0  0  0  0  0
   54.6580   77.0130   29.5440 C   0  0  0  0  0  0  0  0  0  0  0  0
   53.9630   77.4860   28.4610 C   0  0  0  0  0  0  0  0  0  0  0  0
   52.6910   77.1160   28.2600 F   0  0  0  0  0  0  0  0  0  0  0  0
   53.8060   80.3510   26.3230 C   0  0  0  0  0  0  0  0  0  0  0  0
   53.2390   80.8740   25.1440 C   0  0  0  0  0  0  0  0  0  0  0  0
   52.8840   82.1530   24.7440 N   0  0  0  0  0  0  0  0  0  0  0  0
   53.0540   83.3480   25.5690 C   0  0  0  0  0  0  0  0  0  0  0  0
   52.3020   83.2340   26.8960 C   0  0  0  0  0  0  0  0  0  0  0  0
   54.5090   83.7730   25.7700 C   0  0  0  0  0  0  0  0  0  0  0  0
   51.5692   84.0119   23.2858 H   0  0  0  0  0  0  0  0  0  0  0  0
   52.7338   83.5651   21.9931 H   0  0  0  0  0  0  0  0  0  0  0  0
   51.0796   82.8647   21.9931 H   0  0  0  0  0  0  0  0  0  0  0  0
   53.8756   77.0655   25.3801 H   0  0  0  0  0  0  0  0  0  0  0  0
   58.5120   77.9050   28.9200 H   0  0  0  0  0  0  0  0  0  0  0  0
   58.7028   80.7413   27.6827 H   0  0  0  0  0  0  0  0  0  0  0  0
   59.7707   82.7753   28.6666 H   0  0  0  0  0  0  0  0  0  0  0  0
   58.5064   80.5768   33.4430 H   0  0  0  0  0  0  0  0  0  0  0  0
   60.2888   80.3444   33.1755 H   0  0  0  0  0  0  0  0  0  0  0  0
   58.7697   82.9768   33.4393 H   0  0  0  0  0  0  0  0  0  0  0  0
   60.0251   82.2999   34.5409 H   0  0  0  0  0  0  0  0  0  0  0  0
   60.3063   84.9435   33.4442 H   0  0  0  0  0  0  0  0  0  0  0  0
   61.6961   84.0650   34.2382 H   0  0  0  0  0  0  0  0  0  0  0  0
   61.7855   85.1254   31.4021 H   0  0  0  0  0  0  0  0  0  0  0  0
   62.3294   86.0523   32.8812 H   0  0  0  0  0  0  0  0  0  0  0  0
   65.2097   85.9584   33.3128 H   0  0  0  0  0  0  0  0  0  0  0  0
   65.8641   85.3413   31.7580 H   0  0  0  0  0  0  0  0  0  0  0  0
   64.4912   86.4996   31.7580 H   0  0  0  0  0  0  0  0  0  0  0  0
   59.4652   84.0407   31.3694 H   0  0  0  0  0  0  0  0  0  0  0  0
   61.0990   83.5614   30.7101 H   0  0  0  0  0  0  0  0  0  0  0  0
   54.1467   76.3197   30.2280 H   0  0  0  0  0  0  0  0  0  0  0  0
   54.0568   81.0163   27.1623 H   0  0  0  0  0  0  0  0  0  0  0  0
   52.5970   84.1646   24.9908 H   0  0  0  0  0  0  0  0  0  0  0  0
   53.0113   83.3415   27.7298 H   0  0  0  0  0  0  0  0  0  0  0  0
   51.5423   84.0272   26.9563 H   0  0  0  0  0  0  0  0  0  0  0  0
   51.8115   82.2512   26.9563 H   0  0  0  0  0  0  0  0  0  0  0  0
   54.7270   83.8367   26.8463 H   0  0  0  0  0  0  0  0  0  0  0  0
   55.1752   83.0319   25.3042 H   0  0  0  0  0  0  0  0  0  0  0  0
   54.6715   84.7561   25.3042 H   0  0  0  0  0  0  0  0  0  0  0  0
  1  2  1  0
  2  3  2  0
  3  4  1  0
  4  5  2  0
  5  6  1  0
  5  7  1  0
  7  8  2  0
  8  9  1  0
  9 10  2  0
 10 11  1  0
 11 12  1  0
 12 13  1  0
 13 14  1  0
 14 15  2  0
 15 16  1  0
 16 17  2  0
 17 18  1  0
 17 19  1  0
 19 20  1  0
 20 21  1  0
 21 22  1  0
 22 23  1  0
 23 24  1  0
 24 25  1  0
 24 26  2  0
 24 27  2  0
 27 28  1  0
 28 29  3  0
 21 30  1  0
 11 31  2  0
 31 32  1  0
 32 33  2  0
 33 34  1  0
  8 35  1  0
 35 36  2  0
 36 37  1  0
 37 38  1  0
 38 39  1  0
 38 40  1  0
 37  2  1  0
 36  4  1  0
 33  9  1  0
 18 13  2  0
 30 16  1  0
  1 41  1  0
  1 42  1  0
  1 43  1  0
  7 44  1  0
 12 45  1  0
 14 46  1  0
 15 47  1  0
 19 48  1  0
 19 49  1  0
 20 50  1  0
 20 51  1  0
 22 52  1  0
 22 53  1  0
 23 54  1  0
 23 55  1  0
 25 56  1  0
 25 57  1  0
 25 58  1  0
 30 59  1  0
 30 60  1  0
 32 61  1  0
 35 62  1  0
 38 63  1  0
 39 64  1  0
 39 65  1  0
 39 66  1  0
 40 67  1  0
 40 68  1  0
 40 69  1  0
M  END
>  <meeko>  (1) 
{"is_sidechain": false}

>  <smiles>  (1) 
Cc1nc2c(F)cc(-c3nc(Nc4ccc5c(n4)CCN(CCS(C)(=O)=NC#N)C5)ncc3F)cc2n1C(C)C

>  <vina_score>  (1) 
-9.265

>  <job_id>  (1) 
0c43d8799063ea79

$$$$
