
     RDKit          3D

 57 60  0  0  0  0  0  0  0  0999 V2000
   64.5470   84.6870   29.7490 C   0  0  0  0  0  0  0  0  0  0  0  0
   63.9060   83.8230   30.7770 C   0  0  0  0  0  0  0  0  0  0  0  0
   63.8540   82.5100   30.7100 N   0  0  0  0  0  0  0  0  0  0  0  0
   63.1850   82.1100   31.8260 C   0  0  0  0  0  0  0  0  0  0  0  0
   62.8990   83.1810   32.6500 C   0  0  0  0  0  0  0  0  0  0  0  0
   62.3330   82.9920   34.0850 C   0  0  0  0  0  0  0  0  0  0  0  0
   62.8290   83.6360   35.2430 C   0  0  0  0  0  0  0  0  0  0  0  0
   62.1580   83.3020   36.3440 N   0  0  0  0  0  0  0  0  0  0  0  0
   61.1990   82.4890   35.8850 N   0  0  0  0  0  0  0  0  0  0  0  0
   61.2080   82.3160   34.5200 C   0  0  0  0  0  0  0  0  0  0  0  0
   60.0670   81.6170   33.8740 C   0  0  0  0  0  0  0  0  0  0  0  0
   59.3160   80.9800   34.9060 O   0  0  0  0  0  0  0  0  0  0  0  0
   58.9940   82.6990   32.8860 S   0  0  0  0  0  0  0  0  0  0  0  0
   59.1780   81.9550   31.2810 C   0  0  0  0  0  0  0  0  0  0  0  0
   59.9770   82.5540   30.3400 C   0  0  0  0  0  0  0  0  0  0  0  0
   60.0570   81.8920   29.1450 C   0  0  0  0  0  0  0  0  0  0  0  0
   59.4190   80.7340   28.8980 N   0  0  0  0  0  0  0  0  0  0  0  0
   58.6660   80.2130   29.8770 C   0  0  0  0  0  0  0  0  0  0  0  0
   57.9870   79.0090   29.7200 N   0  0  0  0  0  0  0  0  0  0  0  0
   56.7610   78.6530   29.1460 C   0  0  0  0  0  0  0  0  0  0  0  0
   55.9350   77.6360   29.6370 C   0  0  0  0  0  0  0  0  0  0  0  0
   54.7070   77.3340   29.0320 C   0  0  0  0  0  0  0  0  0  0  0  0
   54.2750   78.0590   27.9190 C   0  0  0  0  0  0  0  0  0  0  0  0
   52.9810   77.7840   27.2380 C   0  0  0  0  0  0  0  0  0  0  0  0
   52.2490   76.7160   27.6780 N   0  0  0  0  0  0  0  0  0  0  0  0
   52.5610   78.5020   26.3400 O   0  0  0  0  0  0  0  0  0  0  0  0
   55.0920   79.0710   27.4080 C   0  0  0  0  0  0  0  0  0  0  0  0
   56.3160   79.3640   28.0200 C   0  0  0  0  0  0  0  0  0  0  0  0
   58.5220   80.7930   31.0810 N   0  0  0  0  0  0  0  0  0  0  0  0
   63.2210   84.2960   31.8990 N   0  0  0  0  0  0  0  0  0  0  0  0
   62.6110   85.6280   31.9220 C   0  0  0  0  0  0  0  0  0  0  0  0
   61.0790   85.6610   31.9220 C   0  0  0  0  0  0  0  0  0  0  0  0
   63.1940   86.5600   32.9820 C   0  0  0  0  0  0  0  0  0  0  0  0
   65.1318   85.4753   30.2455 H   0  0  0  0  0  0  0  0  0  0  0  0
   65.2128   84.0771   29.1208 H   0  0  0  0  0  0  0  0  0  0  0  0
   63.7702   85.1473   29.1208 H   0  0  0  0  0  0  0  0  0  0  0  0
   62.9078   81.0680   32.0436 H   0  0  0  0  0  0  0  0  0  0  0  0
   63.6769   84.3367   35.2349 H   0  0  0  0  0  0  0  0  0  0  0  0
   60.5070   82.1250   36.5330 H   0  0  0  0  0  0  0  0  0  0  0  0
   60.4759   80.8917   33.1551 H   0  0  0  0  0  0  0  0  0  0  0  0
   58.9080   81.7290   35.3880 H   0  0  0  0  0  0  0  0  0  0  0  0
   60.5128   83.4953   30.5317 H   0  0  0  0  0  0  0  0  0  0  0  0
   60.6742   82.3290   28.3462 H   0  0  0  0  0  0  0  0  0  0  0  0
   58.5160   78.2620   30.1450 H   0  0  0  0  0  0  0  0  0  0  0  0
   56.2564   77.0605   30.5176 H   0  0  0  0  0  0  0  0  0  0  0  0
   54.0818   76.5236   29.4350 H   0  0  0  0  0  0  0  0  0  0  0  0
   51.3200   76.6300   27.2850 H   0  0  0  0  0  0  0  0  0  0  0  0
   52.4140   76.2830   28.5740 H   0  0  0  0  0  0  0  0  0  0  0  0
   54.7721   79.6391   26.5220 H   0  0  0  0  0  0  0  0  0  0  0  0
   56.9433   80.1691   27.6098 H   0  0  0  0  0  0  0  0  0  0  0  0
   62.9029   86.0292   30.9402 H   0  0  0  0  0  0  0  0  0  0  0  0
   60.7124   85.6689   32.9591 H   0  0  0  0  0  0  0  0  0  0  0  0
   60.7318   86.5668   31.4035 H   0  0  0  0  0  0  0  0  0  0  0  0
   60.6931   84.7710   31.4035 H   0  0  0  0  0  0  0  0  0  0  0  0
   62.9522   86.1735   33.9831 H   0  0  0  0  0  0  0  0  0  0  0  0
   64.2863   86.6126   32.8632 H   0  0  0  0  0  0  0  0  0  0  0  0
   62.7634   87.5652   32.8632 H   0  0  0  0  0  0  0  0  0  0  0  0
  1  2  1  0
  2  3  2  0
  3  4  1  0
  4  5  2  0
  5  6  1  0
  6  7  1  0
  7  8  2  0
  8  9  1  0
  9 10  1  0
 10 11  1  0
 11 12  1  0
 11 13  1  0
 13 14  1  0
 14 15  1  0
 15 16  2  0
 16 17  1  0
 17 18  2  0
 18 19  1  0
 19 20  1  0
 20 21  1  0
 21 22  2  0
 22 23  1  0
 23 24  1  0
 24 25  1  0
 24 26  2  0
 23 27  2  0
 27 28  1  0
 18 29  1  0
  5 30  1  0
 30 31  1  0
 31 32  1  0
 31 33  1  0
 30  2  1  0
 10  6  2  0
 29 14  2  0
 28 20  2  0
  1 34  1  0
  1 35  1  0
  1 36  1  0
  4 37  1  0
  7 38  1  0
  9 39  1  0
 11 40  1  0
 12 41  1  0
 15 42  1  0
 16 43  1  0
 19 44  1  0
 21 45  1  0
 22 46  1  0
 25 47  1  0
 25 48  1  0
 27 49  1  0
 28 50  1  0
 31 51  1  0
 32 52  1  0
 32 53  1  0
 32 54  1  0
 33 55  1  0
 33 56  1  0
 33 57  1  0
M  END
>  <meeko>  (1) 
{"is_sidechain": false}

>  <smiles>  (1) 
Cc1ncc(-c2cn[nH]c2C(O)Sc2ccnc(Nc3ccc(C(N)=O)cc3)n2)n1C(C)C

>  <vina_score>  (1) 
-7.893

>  <job_id>  (1) 
0c862ca5f168c438

$$$$
