
     RDKit          3D

 43 45  0  0  0  0  0  0  0  0999 V2000
   56.6820   80.9620   27.0860 O   0  0  0  0  0  0  0  0  0  0  0  0
   56.7710   79.8580   27.6210 C   0  0  0  0  0  0  0  0  0  0  0  0
   58.0700   79.3080   28.1900 C   0  0  0  0  0  0  0  0  0  0  0  0
   58.6290   80.0940   29.3510 C   0  0  0  0  0  0  0  0  0  0  0  0
   59.5890   81.0860   29.1470 C   0  0  0  0  0  0  0  0  0  0  0  0
   60.1070   81.8110   30.2310 C   0  0  0  0  0  0  0  0  0  0  0  0
   59.6900   81.5810   31.5500 C   0  0  0  0  0  0  0  0  0  0  0  0
   60.2010   82.3000   32.6250 N   0  0  0  0  0  0  0  0  0  0  0  0
   60.7420   83.6460   32.4190 C   0  0  0  0  0  0  0  0  0  0  0  0
   60.5530   84.4960   33.6690 C   0  0  0  0  0  0  0  0  0  0  0  0
   61.2430   83.8670   34.8760 C   0  0  0  0  0  0  0  0  0  0  0  0
   60.6310   84.3550   36.0720 O   0  0  0  0  0  0  0  0  0  0  0  0
   61.1880   82.3420   34.8720 C   0  0  0  0  0  0  0  0  0  0  0  0
   60.0500   81.8160   34.0010 C   0  0  0  0  0  0  0  0  0  0  0  0
   58.7130   80.5880   31.7280 C   0  0  0  0  0  0  0  0  0  0  0  0
   58.1870   79.8570   30.6540 C   0  0  0  0  0  0  0  0  0  0  0  0
   55.5380   79.0150   27.7300 C   0  0  0  0  0  0  0  0  0  0  0  0
   54.4490   79.1560   26.8600 C   0  0  0  0  0  0  0  0  0  0  0  0
   53.3220   78.3420   27.0070 C   0  0  0  0  0  0  0  0  0  0  0  0
   53.2740   77.3840   28.0190 C   0  0  0  0  0  0  0  0  0  0  0  0
   54.3540   77.2350   28.8870 C   0  0  0  0  0  0  0  0  0  0  0  0
   55.4810   78.0460   28.7430 C   0  0  0  0  0  0  0  0  0  0  0  0
   57.8871   78.2777   28.5293 H   0  0  0  0  0  0  0  0  0  0  0  0
   58.8152   79.3702   27.3833 H   0  0  0  0  0  0  0  0  0  0  0  0
   59.9426   81.3014   28.1279 H   0  0  0  0  0  0  0  0  0  0  0  0
   60.8649   82.5850   30.0399 H   0  0  0  0  0  0  0  0  0  0  0  0
   61.8154   83.5732   32.1900 H   0  0  0  0  0  0  0  0  0  0  0  0
   60.2064   84.1198   31.5832 H   0  0  0  0  0  0  0  0  0  0  0  0
   60.9802   85.4940   33.4917 H   0  0  0  0  0  0  0  0  0  0  0  0
   59.4761   84.5662   33.8819 H   0  0  0  0  0  0  0  0  0  0  0  0
   62.3044   84.1516   34.8260 H   0  0  0  0  0  0  0  0  0  0  0  0
   59.9590   85.0070   35.8140 H   0  0  0  0  0  0  0  0  0  0  0  0
   62.1413   81.9527   34.4850 H   0  0  0  0  0  0  0  0  0  0  0  0
   61.0117   82.0044   35.9040 H   0  0  0  0  0  0  0  0  0  0  0  0
   60.0688   80.7162   34.0036 H   0  0  0  0  0  0  0  0  0  0  0  0
   59.0924   82.1758   34.4053 H   0  0  0  0  0  0  0  0  0  0  0  0
   58.3484   80.3769   32.7441 H   0  0  0  0  0  0  0  0  0  0  0  0
   57.4200   79.0906   30.8391 H   0  0  0  0  0  0  0  0  0  0  0  0
   54.4808   79.9093   26.0590 H   0  0  0  0  0  0  0  0  0  0  0  0
   52.4696   78.4578   26.3215 H   0  0  0  0  0  0  0  0  0  0  0  0
   52.3847   76.7466   28.1321 H   0  0  0  0  0  0  0  0  0  0  0  0
   54.3184   76.4788   29.6851 H   0  0  0  0  0  0  0  0  0  0  0  0
   56.3317   77.9243   29.4297 H   0  0  0  0  0  0  0  0  0  0  0  0
  1  2  2  0
  2  3  1  0
  3  4  1  0
  4  5  1  0
  5  6  2  0
  6  7  1  0
  7  8  1  0
  8  9  1  0
  9 10  1  0
 10 11  1  0
 11 12  1  0
 11 13  1  0
 13 14  1  0
  7 15  2  0
 15 16  1  0
  2 17  1  0
 17 18  2  0
 18 19  1  0
 19 20  2  0
 20 21  1  0
 21 22  2  0
 16  4  2  0
 22 17  1  0
 14  8  1  0
  3 23  1  0
  3 24  1  0
  5 25  1  0
  6 26  1  0
  9 27  1  0
  9 28  1  0
 10 29  1  0
 10 30  1  0
 11 31  1  0
 12 32  1  0
 13 33  1  0
 13 34  1  0
 14 35  1  0
 14 36  1  0
 15 37  1  0
 16 38  1  0
 18 39  1  0
 19 40  1  0
 20 41  1  0
 21 42  1  0
 22 43  1  0
M  END
>  <meeko>  (1) 
{"is_sidechain": false}

>  <smiles>  (1) 
O=C(Cc1ccc(N2CCC(O)CC2)cc1)c1ccccc1

>  <vina_score>  (1) 
-7.978

>  <job_id>  (1) 
0c8a93a4fccae28b

$$$$
