
     RDKit          3D

 40 41  0  0  0  0  0  0  0  0999 V2000
   53.0090   79.1000   26.6670 C   0  0  0  0  0  0  0  0  0  0  0  0
   54.0760   78.5360   27.5680 C   0  0  0  0  0  0  0  0  0  0  0  0
   53.7790   77.3850   28.3200 C   0  0  0  0  0  0  0  0  0  0  0  0
   54.7310   76.8070   29.1580 C   0  0  0  0  0  0  0  0  0  0  0  0
   55.9920   77.3830   29.2700 C   0  0  0  0  0  0  0  0  0  0  0  0
   56.3010   78.5350   28.5380 C   0  0  0  0  0  0  0  0  0  0  0  0
   57.6480   79.1170   28.7640 C   0  0  0  0  0  0  0  0  0  0  0  0
   58.5600   78.7830   28.0200 O   0  0  0  0  0  0  0  0  0  0  0  0
   57.7060   79.9570   29.8600 N   0  0  0  0  0  0  0  0  0  0  0  0
   58.8220   80.6770   30.3260 C   0  0  0  0  0  0  0  0  0  0  0  0
   59.6730   81.4130   29.5130 C   0  0  0  0  0  0  0  0  0  0  0  0
   60.7620   82.1100   30.0640 C   0  0  0  0  0  0  0  0  0  0  0  0
   61.0550   82.0940   31.4370 C   0  0  0  0  0  0  0  0  0  0  0  0
   62.1320   82.8030   31.9850 N   0  0  0  0  0  0  0  0  0  0  0  0
   62.1840   82.9860   33.4350 C   0  0  0  0  0  0  0  0  0  0  0  0
   63.4290   82.7550   31.3110 C   0  0  0  0  0  0  0  0  0  0  0  0
   60.1660   81.3560   32.2360 C   0  0  0  0  0  0  0  0  0  0  0  0
   59.0740   80.6580   31.6970 C   0  0  0  0  0  0  0  0  0  0  0  0
   55.3670   79.1070   27.6450 C   0  0  0  0  0  0  0  0  0  0  0  0
   55.7310   80.3050   26.8050 C   0  0  0  0  0  0  0  0  0  0  0  0
   52.2007   79.5272   27.2787 H   0  0  0  0  0  0  0  0  0  0  0  0
   53.4432   79.8864   26.0321 H   0  0  0  0  0  0  0  0  0  0  0  0
   52.6038   78.2983   26.0321 H   0  0  0  0  0  0  0  0  0  0  0  0
   52.7787   76.9335   28.2455 H   0  0  0  0  0  0  0  0  0  0  0  0
   54.4860   75.8990   29.7285 H   0  0  0  0  0  0  0  0  0  0  0  0
   56.7457   76.9335   29.9333 H   0  0  0  0  0  0  0  0  0  0  0  0
   56.8590   80.0420   30.4060 H   0  0  0  0  0  0  0  0  0  0  0  0
   59.4935   81.4510   28.4284 H   0  0  0  0  0  0  0  0  0  0  0  0
   61.4109   82.6914   29.3925 H   0  0  0  0  0  0  0  0  0  0  0  0
   61.9160   82.0428   33.9335 H   0  0  0  0  0  0  0  0  0  0  0  0
   63.2015   83.2810   33.7311 H   0  0  0  0  0  0  0  0  0  0  0  0
   61.4736   83.7719   33.7311 H   0  0  0  0  0  0  0  0  0  0  0  0
   64.2318   82.7253   32.0624 H   0  0  0  0  0  0  0  0  0  0  0  0
   63.4821   81.8543   30.6818 H   0  0  0  0  0  0  0  0  0  0  0  0
   63.5486   83.6493   30.6818 H   0  0  0  0  0  0  0  0  0  0  0  0
   60.3316   81.3240   33.3230 H   0  0  0  0  0  0  0  0  0  0  0  0
   58.4094   80.0894   32.3641 H   0  0  0  0  0  0  0  0  0  0  0  0
   55.9875   81.1492   27.4620 H   0  0  0  0  0  0  0  0  0  0  0  0
   56.5949   80.0588   26.1701 H   0  0  0  0  0  0  0  0  0  0  0  0
   54.8762   80.5810   26.1701 H   0  0  0  0  0  0  0  0  0  0  0  0
  1  2  1  0
  2  3  2  0
  3  4  1  0
  4  5  2  0
  5  6  1  0
  6  7  1  0
  7  8  2  0
  7  9  1  0
  9 10  1  0
 10 11  1  0
 11 12  2  0
 12 13  1  0
 13 14  1  0
 14 15  1  0
 14 16  1  0
 13 17  2  0
 17 18  1  0
  6 19  2  0
 19 20  1  0
 19  2  1  0
 18 10  2  0
  1 21  1  0
  1 22  1  0
  1 23  1  0
  3 24  1  0
  4 25  1  0
  5 26  1  0
  9 27  1  0
 11 28  1  0
 12 29  1  0
 15 30  1  0
 15 31  1  0
 15 32  1  0
 16 33  1  0
 16 34  1  0
 16 35  1  0
 17 36  1  0
 18 37  1  0
 20 38  1  0
 20 39  1  0
 20 40  1  0
M  END
>  <meeko>  (1) 
{"is_sidechain": false}

>  <smiles>  (1) 
Cc1cccc(C(=O)Nc2ccc(N(C)C)cc2)c1C

>  <vina_score>  (1) 
-7.827

>  <job_id>  (1) 
0ca26698a4868aab

$$$$
