
     RDKit          3D

 46 48  0  0  0  0  0  0  0  0999 V2000
   52.9350   77.4550   27.2600 C   0  0  0  0  0  0  0  0  0  0  0  0
   53.9660   78.2370   26.5810 N   0  0  0  0  0  0  0  0  0  0  0  0
   53.5300   78.9490   25.3800 C   0  0  0  0  0  0  0  0  0  0  0  0
   55.0210   78.7630   27.3350 C   0  0  0  0  0  0  0  0  0  0  0  0
   55.7930   79.8460   26.8950 C   0  0  0  0  0  0  0  0  0  0  0  0
   56.8660   80.3620   27.6470 C   0  0  0  0  0  0  0  0  0  0  0  0
   57.2440   79.8200   28.8790 C   0  0  0  0  0  0  0  0  0  0  0  0
   58.2960   80.3400   29.6160 N   0  0  0  0  0  0  0  0  0  0  0  0
   59.0290   81.5360   29.1750 C   0  0  0  0  0  0  0  0  0  0  0  0
   60.4350   81.5960   29.8050 C   0  0  0  0  0  0  0  0  0  0  0  0
   60.4170   81.5120   31.2720 N   0  0  0  0  0  0  0  0  0  0  0  0
   61.3310   82.1370   32.1120 C   0  0  0  0  0  0  0  0  0  0  0  0
   61.1420   82.2910   33.3170 O   0  0  0  0  0  0  0  0  0  0  0  0
   62.5970   82.6500   31.5400 C   0  0  0  0  0  0  0  0  0  0  0  0
   63.7590   81.8700   31.5510 C   0  0  0  0  0  0  0  0  0  0  0  0
   64.9420   82.3850   31.0200 C   0  0  0  0  0  0  0  0  0  0  0  0
   64.9660   83.6780   30.4950 C   0  0  0  0  0  0  0  0  0  0  0  0
   63.8130   84.4650   30.5080 C   0  0  0  0  0  0  0  0  0  0  0  0
   62.6280   83.9550   31.0370 C   0  0  0  0  0  0  0  0  0  0  0  0
   59.2100   80.9370   31.8670 C   0  0  0  0  0  0  0  0  0  0  0  0
   58.5590   79.8570   30.9860 C   0  0  0  0  0  0  0  0  0  0  0  0
   56.4840   78.7320   29.3160 C   0  0  0  0  0  0  0  0  0  0  0  0
   55.4120   78.2140   28.5630 C   0  0  0  0  0  0  0  0  0  0  0  0
   53.0602   77.5500   28.3487 H   0  0  0  0  0  0  0  0  0  0  0  0
   51.9416   77.8288   26.9712 H   0  0  0  0  0  0  0  0  0  0  0  0
   53.0271   76.3976   26.9712 H   0  0  0  0  0  0  0  0  0  0  0  0
   52.9760   79.8537   25.6709 H   0  0  0  0  0  0  0  0  0  0  0  0
   54.4090   79.2334   24.7829 H   0  0  0  0  0  0  0  0  0  0  0  0
   52.8771   78.2953   24.7829 H   0  0  0  0  0  0  0  0  0  0  0  0
   55.5524   80.3101   25.9272 H   0  0  0  0  0  0  0  0  0  0  0  0
   57.4264   81.2218   27.2511 H   0  0  0  0  0  0  0  0  0  0  0  0
   59.1280   81.5119   28.0797 H   0  0  0  0  0  0  0  0  0  0  0  0
   58.4668   82.4254   29.4958 H   0  0  0  0  0  0  0  0  0  0  0  0
   61.0291   80.7568   29.4142 H   0  0  0  0  0  0  0  0  0  0  0  0
   60.8706   82.5704   29.5391 H   0  0  0  0  0  0  0  0  0  0  0  0
   63.7397   80.8557   31.9763 H   0  0  0  0  0  0  0  0  0  0  0  0
   65.8555   81.7722   31.0151 H   0  0  0  0  0  0  0  0  0  0  0  0
   65.8977   84.0788   30.0691 H   0  0  0  0  0  0  0  0  0  0  0  0
   63.8393   85.4867   30.1012 H   0  0  0  0  0  0  0  0  0  0  0  0
   61.7207   84.5766   31.0587 H   0  0  0  0  0  0  0  0  0  0  0  0
   59.4771   80.4859   32.8340 H   0  0  0  0  0  0  0  0  0  0  0  0
   58.4799   81.7519   31.9805 H   0  0  0  0  0  0  0  0  0  0  0  0
   59.2331   78.9894   30.9326 H   0  0  0  0  0  0  0  0  0  0  0  0
   57.5943   79.5865   31.4401 H   0  0  0  0  0  0  0  0  0  0  0  0
   56.7311   78.2642   30.2804 H   0  0  0  0  0  0  0  0  0  0  0  0
   54.8613   77.3458   28.9540 H   0  0  0  0  0  0  0  0  0  0  0  0
  1  2  1  0
  2  3  1  0
  2  4  1  0
  4  5  1  0
  5  6  2  0
  6  7  1  0
  7  8  1  0
  8  9  1  0
  9 10  1  0
 10 11  1  0
 11 12  1  0
 12 13  2  0
 12 14  1  0
 14 15  2  0
 15 16  1  0
 16 17  2  0
 17 18  1  0
 18 19  2  0
 11 20  1  0
 20 21  1  0
  7 22  2  0
 22 23  1  0
 23  4  2  0
 21  8  1  0
 19 14  1  0
  1 24  1  0
  1 25  1  0
  1 26  1  0
  3 27  1  0
  3 28  1  0
  3 29  1  0
  5 30  1  0
  6 31  1  0
  9 32  1  0
  9 33  1  0
 10 34  1  0
 10 35  1  0
 15 36  1  0
 16 37  1  0
 17 38  1  0
 18 39  1  0
 19 40  1  0
 20 41  1  0
 20 42  1  0
 21 43  1  0
 21 44  1  0
 22 45  1  0
 23 46  1  0
M  END
>  <meeko>  (1) 
{"is_sidechain": false}

>  <smiles>  (1) 
CN(C)c1ccc(N2CCN(C(=O)c3ccccc3)CC2)cc1

>  <vina_score>  (1) 
-6.930

>  <job_id>  (1) 
0ccf5a5b5dbdbccb

$$$$
