
     RDKit          3D

 40 41  0  0  0  0  0  0  0  0999 V2000
   53.6850   78.4280   24.7180 C   0  0  0  0  0  0  0  0  0  0  0  0
   54.0320   79.7900   25.3210 C   0  0  0  0  0  0  0  0  0  0  0  0
   53.3660   80.9280   24.5330 C   0  0  0  0  0  0  0  0  0  0  0  0
   53.3100   80.5980   23.1450 O   0  0  0  0  0  0  0  0  0  0  0  0
   53.4540   79.8850   27.0650 S   0  0  0  0  0  0  0  0  0  0  0  0
   54.5270   78.6940   27.8670 C   0  0  0  0  0  0  0  0  0  0  0  0
   55.7970   79.1050   28.0880 N   0  0  0  0  0  0  0  0  0  0  0  0
   56.6420   78.2630   28.7040 C   0  0  0  0  0  0  0  0  0  0  0  0
   57.9290   78.7590   28.8860 N   0  0  0  0  0  0  0  0  0  0  0  0
   58.4730   79.8010   29.6420 C   0  0  0  0  0  0  0  0  0  0  0  0
   58.1730   79.8570   31.0160 C   0  0  0  0  0  0  0  0  0  0  0  0
   58.6870   80.8660   31.8360 C   0  0  0  0  0  0  0  0  0  0  0  0
   59.5200   81.8390   31.2850 C   0  0  0  0  0  0  0  0  0  0  0  0
   60.1800   83.1260   32.3240 S   0  0  0  0  0  0  0  0  0  0  0  0
   61.8450   82.5870   32.6270 C   0  0  0  0  0  0  0  0  0  0  0  0
   59.4010   83.0450   33.6510 N   0  0  0  0  0  0  0  0  0  0  0  0
   60.2670   84.3270   31.5160 O   0  0  0  0  0  0  0  0  0  0  0  0
   59.8290   81.8120   29.9270 C   0  0  0  0  0  0  0  0  0  0  0  0
   59.3090   80.7950   29.1190 C   0  0  0  0  0  0  0  0  0  0  0  0
   56.2810   77.0430   29.1150 N   0  0  0  0  0  0  0  0  0  0  0  0
   55.0070   76.6640   28.8920 C   0  0  0  0  0  0  0  0  0  0  0  0
   54.0710   77.4520   28.2690 C   0  0  0  0  0  0  0  0  0  0  0  0
   52.3220   76.7910   28.0200 Br  0  0  0  0  0  0  0  0  0  0  0  0
   53.5009   77.7052   25.5265 H   0  0  0  0  0  0  0  0  0  0  0  0
   52.7819   78.5213   24.0969 H   0  0  0  0  0  0  0  0  0  0  0  0
   54.5226   78.0778   24.0969 H   0  0  0  0  0  0  0  0  0  0  0  0
   55.1255   79.9000   25.2753 H   0  0  0  0  0  0  0  0  0  0  0  0
   52.3448   81.0831   24.9113 H   0  0  0  0  0  0  0  0  0  0  0  0
   53.9567   81.8472   24.6604 H   0  0  0  0  0  0  0  0  0  0  0  0
   52.8080   79.7690   23.0720 H   0  0  0  0  0  0  0  0  0  0  0  0
   58.5750   78.1970   28.3490 H   0  0  0  0  0  0  0  0  0  0  0  0
   57.5190   79.0891   31.4548 H   0  0  0  0  0  0  0  0  0  0  0  0
   58.4364   80.8920   32.9068 H   0  0  0  0  0  0  0  0  0  0  0  0
   62.0204   82.5302   33.7114 H   0  0  0  0  0  0  0  0  0  0  0  0
   61.9963   81.5940   32.1786 H   0  0  0  0  0  0  0  0  0  0  0  0
   62.5495   83.3030   32.1786 H   0  0  0  0  0  0  0  0  0  0  0  0
   58.4310   83.3350   33.5100 H   0  0  0  0  0  0  0  0  0  0  0  0
   60.4784   82.5861   29.4922 H   0  0  0  0  0  0  0  0  0  0  0  0
   59.5627   80.7759   28.0488 H   0  0  0  0  0  0  0  0  0  0  0  0
   54.6986   75.6634   29.2293 H   0  0  0  0  0  0  0  0  0  0  0  0
  1  2  1  0
  2  3  1  0
  3  4  1  0
  2  5  1  0
  5  6  1  0
  6  7  2  0
  7  8  1  0
  8  9  1  0
  9 10  1  0
 10 11  1  0
 11 12  2  0
 12 13  1  0
 13 14  1  0
 14 15  1  0
 14 16  2  0
 14 17  2  0
 13 18  2  0
 18 19  1  0
  8 20  2  0
 20 21  1  0
 21 22  2  0
 22 23  1  0
 22  6  1  0
 19 10  2  0
  1 24  1  0
  1 25  1  0
  1 26  1  0
  2 27  1  0
  3 28  1  0
  3 29  1  0
  4 30  1  0
  9 31  1  0
 11 32  1  0
 12 33  1  0
 15 34  1  0
 15 35  1  0
 15 36  1  0
 16 37  1  0
 18 38  1  0
 19 39  1  0
 21 40  1  0
M  END
>  <meeko>  (1) 
{"is_sidechain": false}

>  <smiles>  (1) 
CC(CO)Sc1nc(Nc2ccc(S(C)(=N)=O)cc2)ncc1Br

>  <vina_score>  (1) 
-7.315

>  <job_id>  (1) 
0db106d8922a21e1

$$$$
