
     RDKit          3D

 41 42  0  0  0  0  0  0  0  0999 V2000
   61.3760   83.4990   32.7950 C   0  0  0  0  0  0  0  0  0  0  0  0
   60.2830   83.0370   31.8630 C   0  0  0  0  0  0  0  0  0  0  0  0
   59.3610   83.7840   31.5550 O   0  0  0  0  0  0  0  0  0  0  0  0
   60.4480   81.7270   31.4580 N   0  0  0  0  0  0  0  0  0  0  0  0
   59.6020   80.9990   30.5950 C   0  0  0  0  0  0  0  0  0  0  0  0
   58.5970   80.2220   31.1730 C   0  0  0  0  0  0  0  0  0  0  0  0
   57.7340   79.4820   30.3630 C   0  0  0  0  0  0  0  0  0  0  0  0
   57.8900   79.5320   28.9820 C   0  0  0  0  0  0  0  0  0  0  0  0
   56.9600   78.7340   28.1010 C   0  0  0  0  0  0  0  0  0  0  0  0
   55.6440   78.3570   28.7770 C   0  0  0  0  0  0  0  0  0  0  0  0
   54.4590   78.5470   27.8480 C   0  0  0  0  0  0  0  0  0  0  0  0
   53.4220   77.9060   27.9810 O   0  0  0  0  0  0  0  0  0  0  0  0
   54.7290   79.5060   26.8840 N   0  0  0  0  0  0  0  0  0  0  0  0
   53.8870   79.9630   25.8440 C   0  0  0  0  0  0  0  0  0  0  0  0
   53.7180   79.2540   24.6480 C   0  0  0  0  0  0  0  0  0  0  0  0
   52.8780   79.7330   23.6390 C   0  0  0  0  0  0  0  0  0  0  0  0
   52.1930   80.9290   23.8100 C   0  0  0  0  0  0  0  0  0  0  0  0
   52.3490   81.6490   24.9920 C   0  0  0  0  0  0  0  0  0  0  0  0
   53.1910   81.1800   26.0170 C   0  0  0  0  0  0  0  0  0  0  0  0
   53.3120   82.0080   27.2690 C   0  0  0  0  0  0  0  0  0  0  0  0
   58.8570   80.2770   28.3980 N   0  0  0  0  0  0  0  0  0  0  0  0
   59.6850   80.9890   29.2080 C   0  0  0  0  0  0  0  0  0  0  0  0
   61.0516   83.3619   33.8371 H   0  0  0  0  0  0  0  0  0  0  0  0
   62.2863   82.9087   32.6137 H   0  0  0  0  0  0  0  0  0  0  0  0
   61.5869   84.5632   32.6137 H   0  0  0  0  0  0  0  0  0  0  0  0
   61.2520   81.2300   31.8200 H   0  0  0  0  0  0  0  0  0  0  0  0
   58.4850   80.1927   32.2669 H   0  0  0  0  0  0  0  0  0  0  0  0
   56.9401   78.8668   30.8116 H   0  0  0  0  0  0  0  0  0  0  0  0
   56.7316   79.3318   27.2063 H   0  0  0  0  0  0  0  0  0  0  0  0
   57.4766   77.7937   27.8581 H   0  0  0  0  0  0  0  0  0  0  0  0
   55.6906   77.3016   29.0835 H   0  0  0  0  0  0  0  0  0  0  0  0
   55.5055   79.0154   29.6472 H   0  0  0  0  0  0  0  0  0  0  0  0
   55.6460   79.9280   26.9340 H   0  0  0  0  0  0  0  0  0  0  0  0
   54.2548   78.3053   24.5006 H   0  0  0  0  0  0  0  0  0  0  0  0
   52.7591   79.1612   22.7069 H   0  0  0  0  0  0  0  0  0  0  0  0
   51.5309   81.3055   23.0163 H   0  0  0  0  0  0  0  0  0  0  0  0
   51.8068   82.5967   25.1259 H   0  0  0  0  0  0  0  0  0  0  0  0
   53.2168   81.3564   28.1501 H   0  0  0  0  0  0  0  0  0  0  0  0
   54.2925   82.5063   27.2857 H   0  0  0  0  0  0  0  0  0  0  0  0
   52.5151   82.7661   27.2857 H   0  0  0  0  0  0  0  0  0  0  0  0
   60.4710   81.5960   28.7350 H   0  0  0  0  0  0  0  0  0  0  0  0
  1  2  1  0
  2  3  2  0
  2  4  1  0
  4  5  1  0
  5  6  2  0
  6  7  1  0
  7  8  2  0
  8  9  1  0
  9 10  1  0
 10 11  1  0
 11 12  2  0
 11 13  1  0
 13 14  1  0
 14 15  2  0
 15 16  1  0
 16 17  2  0
 17 18  1  0
 18 19  2  0
 19 20  1  0
  8 21  1  0
 21 22  2  0
 22  5  1  0
 19 14  1  0
  1 23  1  0
  1 24  1  0
  1 25  1  0
  4 26  1  0
  6 27  1  0
  7 28  1  0
  9 29  1  0
  9 30  1  0
 10 31  1  0
 10 32  1  0
 13 33  1  0
 15 34  1  0
 16 35  1  0
 17 36  1  0
 18 37  1  0
 20 38  1  0
 20 39  1  0
 20 40  1  0
 22 41  1  0
M  END
>  <meeko>  (1) 
{"is_sidechain": false}

>  <smiles>  (1) 
CC(=O)Nc1ccc(CCC(=O)Nc2ccccc2C)nc1

>  <vina_score>  (1) 
-7.547

>  <job_id>  (1) 
0de74e96e5f7447d

$$$$
