
     RDKit          3D

 39 40  0  0  0  0  0  0  0  0999 V2000
   58.1860   80.9530   31.9180 C   0  0  0  0  0  0  0  0  0  0  0  0
   58.8120   79.8990   31.0180 C   0  0  0  0  0  0  0  0  0  0  0  0
   58.2740   79.9220   29.5860 C   0  0  0  0  0  0  0  0  0  0  0  0
   57.1970   78.8660   29.3290 C   0  0  0  0  0  0  0  0  0  0  0  0
   56.2830   79.2700   28.1980 C   0  0  0  0  0  0  0  0  0  0  0  0
   55.0320   78.6650   28.0440 C   0  0  0  0  0  0  0  0  0  0  0  0
   54.1930   79.0290   26.9850 C   0  0  0  0  0  0  0  0  0  0  0  0
   54.5820   80.0040   26.0540 C   0  0  0  0  0  0  0  0  0  0  0  0
   53.6970   80.3860   24.9400 C   0  0  0  0  0  0  0  0  0  0  0  0
   53.4230   81.7380   24.6670 C   0  0  0  0  0  0  0  0  0  0  0  0
   52.5820   82.1050   23.6130 C   0  0  0  0  0  0  0  0  0  0  0  0
   52.0120   81.1150   22.8120 C   0  0  0  0  0  0  0  0  0  0  0  0
   50.9420   81.5840   21.4790 S   0  0  0  0  0  0  0  0  0  0  0  0
   49.4240   81.3570   22.1730 N   0  0  0  0  0  0  0  0  0  0  0  0
   51.0640   83.0090   21.2700 O   0  0  0  0  0  0  0  0  0  0  0  0
   51.0920   80.6250   20.4110 O   0  0  0  0  0  0  0  0  0  0  0  0
   52.2560   79.7650   23.0670 C   0  0  0  0  0  0  0  0  0  0  0  0
   53.0990   79.4080   24.1240 C   0  0  0  0  0  0  0  0  0  0  0  0
   55.8420   80.6010   26.2150 C   0  0  0  0  0  0  0  0  0  0  0  0
   56.6840   80.2380   27.2710 C   0  0  0  0  0  0  0  0  0  0  0  0
   58.3485   80.6794   32.9710 H   0  0  0  0  0  0  0  0  0  0  0  0
   58.6506   81.9296   31.7170 H   0  0  0  0  0  0  0  0  0  0  0  0
   57.1061   81.0123   31.7170 H   0  0  0  0  0  0  0  0  0  0  0  0
   59.8981   80.0701   30.9847 H   0  0  0  0  0  0  0  0  0  0  0  0
   58.5573   78.9172   31.4437 H   0  0  0  0  0  0  0  0  0  0  0  0
   57.8434   80.9151   29.3903 H   0  0  0  0  0  0  0  0  0  0  0  0
   59.1176   79.6978   28.9166 H   0  0  0  0  0  0  0  0  0  0  0  0
   57.6844   77.9140   29.0717 H   0  0  0  0  0  0  0  0  0  0  0  0
   56.5912   78.7626   30.2413 H   0  0  0  0  0  0  0  0  0  0  0  0
   54.7049   77.8972   28.7606 H   0  0  0  0  0  0  0  0  0  0  0  0
   53.2119   78.5426   26.8806 H   0  0  0  0  0  0  0  0  0  0  0  0
   53.8781   82.5194   25.2933 H   0  0  0  0  0  0  0  0  0  0  0  0
   52.3710   83.1665   23.4163 H   0  0  0  0  0  0  0  0  0  0  0  0
   49.3390   80.4740   22.6760 H   0  0  0  0  0  0  0  0  0  0  0  0
   49.2120   82.1590   22.7690 H   0  0  0  0  0  0  0  0  0  0  0  0
   51.7896   78.9889   22.4424 H   0  0  0  0  0  0  0  0  0  0  0  0
   53.2981   78.3443   24.3210 H   0  0  0  0  0  0  0  0  0  0  0  0
   56.1728   81.3673   25.4985 H   0  0  0  0  0  0  0  0  0  0  0  0
   57.6688   80.7171   27.3735 H   0  0  0  0  0  0  0  0  0  0  0  0
  1  2  1  0
  2  3  1  0
  3  4  1  0
  4  5  1  0
  5  6  1  0
  6  7  2  0
  7  8  1  0
  8  9  1  0
  9 10  1  0
 10 11  2  0
 11 12  1  0
 12 13  1  0
 13 14  1  0
 13 15  2  0
 13 16  2  0
 12 17  2  0
 17 18  1  0
  8 19  2  0
 19 20  1  0
 20  5  2  0
 18  9  2  0
  1 21  1  0
  1 22  1  0
  1 23  1  0
  2 24  1  0
  2 25  1  0
  3 26  1  0
  3 27  1  0
  4 28  1  0
  4 29  1  0
  6 30  1  0
  7 31  1  0
 10 32  1  0
 11 33  1  0
 14 34  1  0
 14 35  1  0
 17 36  1  0
 18 37  1  0
 19 38  1  0
 20 39  1  0
M  END
>  <meeko>  (1) 
{"is_sidechain": false}

>  <smiles>  (1) 
CCCCc1ccc(-c2ccc(S(N)(=O)=O)cc2)cc1

>  <vina_score>  (1) 
-8.077

>  <job_id>  (1) 
0dfa7941dd09daea

$$$$
