
     RDKit          3D

 48 51  0  0  0  0  0  0  0  0999 V2000
   50.6850   83.1410   21.1520 O   0  0  0  0  0  0  0  0  0  0  0  0
   51.0120   81.9540   21.8620 C   0  0  0  0  0  0  0  0  0  0  0  0
   52.3650   82.0920   22.5740 C   0  0  2  0  0  0  0  0  0  0  0  0
   53.0720   80.7330   22.7610 C   0  0  0  0  0  0  0  0  0  0  0  0
   52.7680   80.0790   24.1070 C   0  0  0  0  0  0  0  0  0  0  0  0
   53.0960   80.9880   25.3100 C   0  0  1  0  0  0  0  0  0  0  0  0
   54.2230   80.5130   26.1010 N   0  0  0  0  0  0  0  0  0  0  0  0
   55.4740   81.0780   26.1080 C   0  0  0  0  0  0  0  0  0  0  0  0
   56.3000   80.4450   26.9140 N   0  0  0  0  0  0  0  0  0  0  0  0
   55.5430   79.4310   27.4640 C   0  0  0  0  0  0  0  0  0  0  0  0
   55.8580   78.4190   28.3950 C   0  0  0  0  0  0  0  0  0  0  0  0
   57.1270   78.3290   28.9720 N   0  0  0  0  0  0  0  0  0  0  0  0
   57.2210   78.8550   30.3190 C   0  0  0  0  0  0  0  0  0  0  0  0
   58.2640   79.9480   30.3530 C   0  0  0  0  0  0  0  0  0  0  0  0
   58.9330   80.3390   29.1830 C   0  0  0  0  0  0  0  0  0  0  0  0
   59.8890   81.3570   29.2220 C   0  0  0  0  0  0  0  0  0  0  0  0
   60.1800   81.9970   30.4250 C   0  0  0  0  0  0  0  0  0  0  0  0
   59.5150   81.6240   31.5910 C   0  0  0  0  0  0  0  0  0  0  0  0
   58.5600   80.6070   31.5560 C   0  0  0  0  0  0  0  0  0  0  0  0
   54.8780   77.5350   28.7200 N   0  0  0  0  0  0  0  0  0  0  0  0
   53.6610   77.6780   28.1550 C   0  0  0  0  0  0  0  0  0  0  0  0
   53.2550   78.6010   27.2630 N   0  0  0  0  0  0  0  0  0  0  0  0
   54.2510   79.4490   26.9630 C   0  0  0  0  0  0  0  0  0  0  0  0
   53.2390   82.4710   24.9290 C   0  0  0  0  0  0  0  0  0  0  0  0
   52.1870   82.8570   23.8960 C   0  0  0  0  0  0  0  0  0  0  0  0
   50.0390   83.6350   21.6850 H   0  0  0  0  0  0  0  0  0  0  0  0
   50.2305   81.7560   22.6104 H   0  0  0  0  0  0  0  0  0  0  0  0
   51.0779   81.1236   21.1436 H   0  0  0  0  0  0  0  0  0  0  0  0
   53.0356   82.6805   21.9306 H   0  0  0  0  0  0  0  0  0  0  0  0
   52.7434   80.0544   21.9600 H   0  0  0  0  0  0  0  0  0  0  0  0
   54.1555   80.9195   22.7246 H   0  0  0  0  0  0  0  0  0  0  0  0
   51.6977   79.8273   24.1401 H   0  0  0  0  0  0  0  0  0  0  0  0
   53.4042   79.1853   24.1883 H   0  0  0  0  0  0  0  0  0  0  0  0
   52.2135   80.9217   25.9633 H   0  0  0  0  0  0  0  0  0  0  0  0
   55.7537   81.9576   25.5096 H   0  0  0  0  0  0  0  0  0  0  0  0
   57.5020   77.3910   28.8490 H   0  0  0  0  0  0  0  0  0  0  0  0
   56.2469   79.2662   30.6224 H   0  0  0  0  0  0  0  0  0  0  0  0
   57.5065   78.0495   31.0116 H   0  0  0  0  0  0  0  0  0  0  0  0
   58.7033   79.8410   28.2295 H   0  0  0  0  0  0  0  0  0  0  0  0
   60.4129   81.6538   28.3014 H   0  0  0  0  0  0  0  0  0  0  0  0
   60.9347   82.7967   30.4541 H   0  0  0  0  0  0  0  0  0  0  0  0
   59.7429   82.1315   32.5400 H   0  0  0  0  0  0  0  0  0  0  0  0
   58.0350   80.3196   32.4789 H   0  0  0  0  0  0  0  0  0  0  0  0
   52.9014   76.9446   28.4635 H   0  0  0  0  0  0  0  0  0  0  0  0
   53.1085   83.0907   25.8284 H   0  0  0  0  0  0  0  0  0  0  0  0
   54.2384   82.6347   24.4995 H   0  0  0  0  0  0  0  0  0  0  0  0
   51.1904   82.6326   24.3040 H   0  0  0  0  0  0  0  0  0  0  0  0
   52.2994   83.9304   23.6835 H   0  0  0  0  0  0  0  0  0  0  0  0
  1  2  1  0
  2  3  1  0
  3  4  1  0
  4  5  1  0
  5  6  1  0
  6  7  1  0
  7  8  1  0
  8  9  2  0
  9 10  1  0
 10 11  2  0
 11 12  1  0
 12 13  1  0
 13 14  1  0
 14 15  2  0
 15 16  1  0
 16 17  2  0
 17 18  1  0
 18 19  2  0
 11 20  1  0
 20 21  2  0
 21 22  1  0
 22 23  2  0
  6 24  1  0
 24 25  1  0
 25  3  1  0
 23  7  1  0
 23 10  1  0
 19 14  1  0
  1 26  1  0
  2 27  1  0
  2 28  1  0
  3 29  1  1
  4 30  1  0
  4 31  1  0
  5 32  1  0
  5 33  1  0
  6 34  1  6
  8 35  1  0
 12 36  1  0
 13 37  1  0
 13 38  1  0
 15 39  1  0
 16 40  1  0
 17 41  1  0
 18 42  1  0
 19 43  1  0
 21 44  1  0
 24 45  1  0
 24 46  1  0
 25 47  1  0
 25 48  1  0
M  END
>  <meeko>  (1) 
{"is_sidechain": false}

>  <smiles>  (1) 
OC[C@H]1CC[C@H](n2cnc3c(NCc4ccccc4)ncnc32)CC1

>  <vina_score>  (1) 
-7.978

>  <job_id>  (1) 
0e272b8f724fda2f

$$$$
