
     RDKit          3D

 43 44  0  0  0  0  0  0  0  0999 V2000
   53.1690   81.2910   23.9870 C   0  0  0  0  0  0  0  0  0  0  0  0
   53.3390   80.0680   24.8140 C   0  0  0  0  0  0  0  0  0  0  0  0
   52.9350   78.8760   24.4260 N   0  0  0  0  0  0  0  0  0  0  0  0
   53.2850   78.0180   25.4240 C   0  0  0  0  0  0  0  0  0  0  0  0
   53.9310   78.6710   26.4550 C   0  0  0  0  0  0  0  0  0  0  0  0
   54.5030   78.1070   27.6750 C   0  0  0  0  0  0  0  0  0  0  0  0
   55.5880   78.7640   28.1500 N   0  0  0  0  0  0  0  0  0  0  0  0
   56.1710   78.2570   29.2500 C   0  0  0  0  0  0  0  0  0  0  0  0
   57.2810   78.9670   29.6750 N   0  0  0  0  0  0  0  0  0  0  0  0
   58.2420   79.5280   28.8700 C   0  0  0  0  0  0  0  0  0  0  0  0
   58.2910   79.4820   27.6450 O   0  0  0  0  0  0  0  0  0  0  0  0
   59.3100   80.2360   29.6880 C   0  0  0  0  0  0  0  0  0  0  0  0
   59.5390   81.6740   29.2420 C   0  0  0  0  0  0  0  0  0  0  0  0
   60.4920   82.3740   30.1810 C   0  0  0  0  0  0  0  0  0  0  0  0
   61.7070   81.7740   30.3250 N   0  0  0  0  0  0  0  0  0  0  0  0
   60.1970   83.3890   30.8010 O   0  0  0  0  0  0  0  0  0  0  0  0
   55.7420   77.1660   29.8950 N   0  0  0  0  0  0  0  0  0  0  0  0
   54.6640   76.5360   29.3850 C   0  0  0  0  0  0  0  0  0  0  0  0
   54.0050   76.9650   28.2640 C   0  0  0  0  0  0  0  0  0  0  0  0
   52.9410   76.3020   27.7940 F   0  0  0  0  0  0  0  0  0  0  0  0
   53.9110   80.0100   26.0740 N   0  0  0  0  0  0  0  0  0  0  0  0
   54.3790   81.1300   26.8920 C   0  0  0  0  0  0  0  0  0  0  0  0
   55.6490   81.7640   26.3240 C   0  0  0  0  0  0  0  0  0  0  0  0
   53.3100   82.1820   27.1960 C   0  0  0  0  0  0  0  0  0  0  0  0
   53.0476   82.1644   24.6446 H   0  0  0  0  0  0  0  0  0  0  0  0
   54.0564   81.4306   23.3521 H   0  0  0  0  0  0  0  0  0  0  0  0
   52.2772   81.1833   23.3521 H   0  0  0  0  0  0  0  0  0  0  0  0
   53.0785   76.9376   25.4104 H   0  0  0  0  0  0  0  0  0  0  0  0
   57.3360   79.0550   30.6780 H   0  0  0  0  0  0  0  0  0  0  0  0
   58.9989   80.2407   30.7431 H   0  0  0  0  0  0  0  0  0  0  0  0
   60.2540   79.6902   29.5430 H   0  0  0  0  0  0  0  0  0  0  0  0
   59.9644   81.6749   28.2276 H   0  0  0  0  0  0  0  0  0  0  0  0
   58.5765   82.2064   29.2503 H   0  0  0  0  0  0  0  0  0  0  0  0
   61.7890   80.7760   30.1240 H   0  0  0  0  0  0  0  0  0  0  0  0
   62.3120   82.1420   31.0460 H   0  0  0  0  0  0  0  0  0  0  0  0
   54.2961   75.6332   29.8946 H   0  0  0  0  0  0  0  0  0  0  0  0
   54.6285   80.6819   27.8651 H   0  0  0  0  0  0  0  0  0  0  0  0
   56.2983   82.0881   27.1506 H   0  0  0  0  0  0  0  0  0  0  0  0
   56.1824   81.0264   25.7063 H   0  0  0  0  0  0  0  0  0  0  0  0
   55.3801   82.6336   25.7063 H   0  0  0  0  0  0  0  0  0  0  0  0
   53.2007   82.2896   28.2853 H   0  0  0  0  0  0  0  0  0  0  0  0
   53.6104   83.1465   26.7606 H   0  0  0  0  0  0  0  0  0  0  0  0
   52.3505   81.8662   26.7606 H   0  0  0  0  0  0  0  0  0  0  0  0
  1  2  1  0
  2  3  2  0
  3  4  1  0
  4  5  2  0
  5  6  1  0
  6  7  2  0
  7  8  1  0
  8  9  1  0
  9 10  1  0
 10 11  2  0
 10 12  1  0
 12 13  1  0
 13 14  1  0
 14 15  1  0
 14 16  2  0
  8 17  2  0
 17 18  1  0
 18 19  2  0
 19 20  1  0
  5 21  1  0
 21 22  1  0
 22 23  1  0
 22 24  1  0
 21  2  1  0
 19  6  1  0
  1 25  1  0
  1 26  1  0
  1 27  1  0
  4 28  1  0
  9 29  1  0
 12 30  1  0
 12 31  1  0
 13 32  1  0
 13 33  1  0
 15 34  1  0
 15 35  1  0
 18 36  1  0
 22 37  1  0
 23 38  1  0
 23 39  1  0
 23 40  1  0
 24 41  1  0
 24 42  1  0
 24 43  1  0
M  END
>  <meeko>  (1) 
{"is_sidechain": false}

>  <smiles>  (1) 
Cc1ncc(-c2nc(NC(=O)CCC(N)=O)ncc2F)n1C(C)C

>  <vina_score>  (1) 
-8.082

>  <job_id>  (1) 
0e6011bb439a7969

$$$$
