
     RDKit          3D

 40 42  0  0  0  0  0  0  0  0999 V2000
   59.4840   80.4260   29.0470 O   0  0  0  0  0  0  0  0  0  0  0  0
   58.7650   80.2280   30.0220 C   0  0  0  0  0  0  0  0  0  0  0  0
   57.5910   79.4870   30.0170 N   0  0  0  0  0  0  0  0  0  0  0  0
   57.1500   78.8830   28.8240 N   0  0  0  0  0  0  0  0  0  0  0  0
   57.3330   79.7500   27.6450 C   0  0  0  0  0  0  0  0  0  0  0  0
   56.1070   80.6070   27.2620 C   0  0  0  0  0  0  0  0  0  0  0  0
   54.8560   79.8230   27.2030 N   0  0  0  0  0  0  0  0  0  0  0  0
   54.0470   80.0180   26.0730 C   0  0  0  0  0  0  0  0  0  0  0  0
   54.0680   78.9950   25.1100 C   0  0  0  0  0  0  0  0  0  0  0  0
   53.3100   79.0730   23.9380 C   0  0  0  0  0  0  0  0  0  0  0  0
   52.5110   80.1850   23.7020 C   0  0  0  0  0  0  0  0  0  0  0  0
   52.4740   81.2180   24.6370 C   0  0  0  0  0  0  0  0  0  0  0  0
   53.2340   81.1410   25.8140 C   0  0  0  0  0  0  0  0  0  0  0  0
   53.1210   82.4860   26.8960 Cl  0  0  0  0  0  0  0  0  0  0  0  0
   54.9660   78.4180   27.6380 C   0  0  0  0  0  0  0  0  0  0  0  0
   55.7750   78.3580   28.9500 C   0  0  0  0  0  0  0  0  0  0  0  0
   59.1170   80.8540   31.3270 C   0  0  0  0  0  0  0  0  0  0  0  0
   60.3350   81.5200   31.5270 C   0  0  0  0  0  0  0  0  0  0  0  0
   60.6230   82.0890   32.7700 C   0  0  0  0  0  0  0  0  0  0  0  0
   59.6980   82.0030   33.8100 C   0  0  0  0  0  0  0  0  0  0  0  0
   58.4780   81.3570   33.6100 C   0  0  0  0  0  0  0  0  0  0  0  0
   58.1850   80.7880   32.3710 C   0  0  0  0  0  0  0  0  0  0  0  0
   56.9610   79.5190   30.8120 H   0  0  0  0  0  0  0  0  0  0  0  0
   58.1729   80.4301   27.8499 H   0  0  0  0  0  0  0  0  0  0  0  0
   57.5111   79.0752   26.7948 H   0  0  0  0  0  0  0  0  0  0  0  0
   55.9874   81.4038   28.0109 H   0  0  0  0  0  0  0  0  0  0  0  0
   56.2895   81.0155   26.2571 H   0  0  0  0  0  0  0  0  0  0  0  0
   54.6974   78.1096   25.2829 H   0  0  0  0  0  0  0  0  0  0  0  0
   53.3461   78.2550   23.2035 H   0  0  0  0  0  0  0  0  0  0  0  0
   51.9110   80.2497   22.7823 H   0  0  0  0  0  0  0  0  0  0  0  0
   51.8442   82.1004   24.4508 H   0  0  0  0  0  0  0  0  0  0  0  0
   53.9606   78.0045   27.8059 H   0  0  0  0  0  0  0  0  0  0  0  0
   55.4749   77.8282   26.8614 H   0  0  0  0  0  0  0  0  0  0  0  0
   55.2458   78.9494   29.7117 H   0  0  0  0  0  0  0  0  0  0  0  0
   55.8601   77.2969   29.2271 H   0  0  0  0  0  0  0  0  0  0  0  0
   61.0630   81.5943   30.7057 H   0  0  0  0  0  0  0  0  0  0  0  0
   61.5810   82.6057   32.9286 H   0  0  0  0  0  0  0  0  0  0  0  0
   59.9308   82.4454   34.7898 H   0  0  0  0  0  0  0  0  0  0  0  0
   57.7469   81.2964   34.4297 H   0  0  0  0  0  0  0  0  0  0  0  0
   57.2192   80.2858   32.2129 H   0  0  0  0  0  0  0  0  0  0  0  0
  1  2  2  0
  2  3  1  0
  3  4  1  0
  4  5  1  0
  5  6  1  0
  6  7  1  0
  7  8  1  0
  8  9  2  0
  9 10  1  0
 10 11  2  0
 11 12  1  0
 12 13  2  0
 13 14  1  0
  7 15  1  0
 15 16  1  0
  2 17  1  0
 17 18  2  0
 18 19  1  0
 19 20  2  0
 20 21  1  0
 21 22  2  0
 16  4  1  0
 22 17  1  0
 13  8  1  0
  3 23  1  0
  5 24  1  0
  5 25  1  0
  6 26  1  0
  6 27  1  0
  9 28  1  0
 10 29  1  0
 11 30  1  0
 12 31  1  0
 15 32  1  0
 15 33  1  0
 16 34  1  0
 16 35  1  0
 18 36  1  0
 19 37  1  0
 20 38  1  0
 21 39  1  0
 22 40  1  0
M  END
>  <meeko>  (1) 
{"is_sidechain": false}

>  <smiles>  (1) 
O=C(NN1CCN(c2ccccc2Cl)CC1)c1ccccc1

>  <vina_score>  (1) 
-7.922

>  <job_id>  (1) 
0ea70ce11e4315e0

$$$$
