
     RDKit          3D

 47 49  0  0  0  0  0  0  0  0999 V2000
   52.1600   76.5190   27.8870 C   0  0  0  0  0  0  0  0  0  0  0  0
   53.3100   77.4580   27.6760 C   0  0  0  0  0  0  0  0  0  0  0  0
   54.2930   77.6080   28.6590 C   0  0  0  0  0  0  0  0  0  0  0  0
   55.3470   78.5060   28.4780 C   0  0  0  0  0  0  0  0  0  0  0  0
   55.4310   79.2740   27.3100 C   0  0  0  0  0  0  0  0  0  0  0  0
   56.5800   80.2320   27.1000 C   0  0  0  0  0  0  0  0  0  0  0  0
   57.7650   79.9840   28.0200 C   0  0  0  0  0  0  0  0  0  0  0  0
   58.3910   78.9260   28.0050 O   0  0  0  0  0  0  0  0  0  0  0  0
   58.1110   81.0550   28.8210 N   0  0  0  0  0  0  0  0  0  0  0  0
   59.1390   80.9300   29.8480 C   0  0  0  0  0  0  0  0  0  0  0  0
   59.7650   82.2930   30.1430 C   0  0  0  0  0  0  0  0  0  0  0  0
   60.8100   82.1820   31.2510 C   0  0  0  0  0  0  0  0  0  0  0  0
   60.2010   81.5690   32.4460 N   0  0  0  0  0  0  0  0  0  0  0  0
   60.9850   81.7400   33.6020 C   0  0  0  0  0  0  0  0  0  0  0  0
   61.8780   80.7210   33.9810 C   0  0  0  0  0  0  0  0  0  0  0  0
   62.6850   80.8360   35.1170 C   0  0  0  0  0  0  0  0  0  0  0  0
   62.6200   81.9820   35.9020 C   0  0  0  0  0  0  0  0  0  0  0  0
   61.7520   83.0090   35.5460 C   0  0  0  0  0  0  0  0  0  0  0  0
   60.9480   82.8890   34.4050 C   0  0  0  0  0  0  0  0  0  0  0  0
   59.6370   80.2320   32.2090 C   0  0  0  0  0  0  0  0  0  0  0  0
   58.5640   80.3160   31.1270 C   0  0  0  0  0  0  0  0  0  0  0  0
   54.4350   79.1400   26.3360 C   0  0  0  0  0  0  0  0  0  0  0  0
   53.3820   78.2410   26.5190 C   0  0  0  0  0  0  0  0  0  0  0  0
   51.9918   76.3817   28.9654 H   0  0  0  0  0  0  0  0  0  0  0  0
   51.2542   76.9389   27.4252 H   0  0  0  0  0  0  0  0  0  0  0  0
   52.3903   75.5476   27.4252 H   0  0  0  0  0  0  0  0  0  0  0  0
   54.2356   77.0136   29.5828 H   0  0  0  0  0  0  0  0  0  0  0  0
   56.1159   78.6107   29.2576 H   0  0  0  0  0  0  0  0  0  0  0  0
   56.9238   80.1377   26.0594 H   0  0  0  0  0  0  0  0  0  0  0  0
   56.2022   81.2391   27.3304 H   0  0  0  0  0  0  0  0  0  0  0  0
   57.4010   81.7660   28.9620 H   0  0  0  0  0  0  0  0  0  0  0  0
   59.9224   80.2571   29.4693 H   0  0  0  0  0  0  0  0  0  0  0  0
   60.2464   82.6738   29.2302 H   0  0  0  0  0  0  0  0  0  0  0  0
   58.9726   82.9806   30.4736 H   0  0  0  0  0  0  0  0  0  0  0  0
   61.6459   81.5566   30.9045 H   0  0  0  0  0  0  0  0  0  0  0  0
   61.1815   83.1858   31.5046 H   0  0  0  0  0  0  0  0  0  0  0  0
   61.9430   79.8102   33.3677 H   0  0  0  0  0  0  0  0  0  0  0  0
   63.3709   80.0204   35.3896 H   0  0  0  0  0  0  0  0  0  0  0  0
   63.2507   82.0757   36.7984 H   0  0  0  0  0  0  0  0  0  0  0  0
   61.6967   83.9184   36.1624 H   0  0  0  0  0  0  0  0  0  0  0  0
   60.2731   83.7140   34.1331 H   0  0  0  0  0  0  0  0  0  0  0  0
   60.4355   79.5502   31.8811 H   0  0  0  0  0  0  0  0  0  0  0  0
   59.1898   79.8529   33.1397 H   0  0  0  0  0  0  0  0  0  0  0  0
   58.1916   79.3046   30.9073 H   0  0  0  0  0  0  0  0  0  0  0  0
   57.7429   80.9522   31.4890 H   0  0  0  0  0  0  0  0  0  0  0  0
   54.4819   79.7470   25.4199 H   0  0  0  0  0  0  0  0  0  0  0  0
   52.6034   78.1479   25.7476 H   0  0  0  0  0  0  0  0  0  0  0  0
  1  2  1  0
  2  3  1  0
  3  4  2  0
  4  5  1  0
  5  6  1  0
  6  7  1  0
  7  8  2  0
  7  9  1  0
  9 10  1  0
 10 11  1  0
 11 12  1  0
 12 13  1  0
 13 14  1  0
 14 15  2  0
 15 16  1  0
 16 17  2  0
 17 18  1  0
 18 19  2  0
 13 20  1  0
 20 21  1  0
  5 22  2  0
 22 23  1  0
 23  2  2  0
 21 10  1  0
 19 14  1  0
  1 24  1  0
  1 25  1  0
  1 26  1  0
  3 27  1  0
  4 28  1  0
  6 29  1  0
  6 30  1  0
  9 31  1  0
 10 32  1  0
 11 33  1  0
 11 34  1  0
 12 35  1  0
 12 36  1  0
 15 37  1  0
 16 38  1  0
 17 39  1  0
 18 40  1  0
 19 41  1  0
 20 42  1  0
 20 43  1  0
 21 44  1  0
 21 45  1  0
 22 46  1  0
 23 47  1  0
M  END
>  <meeko>  (1) 
{"is_sidechain": false}

>  <smiles>  (1) 
Cc1ccc(CC(=O)NC2CCN(c3ccccc3)CC2)cc1

>  <vina_score>  (1) 
-8.011

>  <job_id>  (1) 
0edcef8508d7fdf4

$$$$
