
     RDKit          3D

 38 39  0  0  0  0  0  0  0  0999 V2000
   52.2690   75.8680   27.6190 C   0  0  0  0  0  0  0  0  0  0  0  0
   52.5100   77.2260   27.9640 O   0  0  0  0  0  0  0  0  0  0  0  0
   53.8060   77.5750   28.2270 C   0  0  0  0  0  0  0  0  0  0  0  0
   54.6540   76.9530   29.1430 C   0  0  0  0  0  0  0  0  0  0  0  0
   55.9650   77.4130   29.3120 C   0  0  0  0  0  0  0  0  0  0  0  0
   56.4430   78.5040   28.5730 C   0  0  0  0  0  0  0  0  0  0  0  0
   57.8620   78.9740   28.7410 C   0  0  0  0  0  0  0  0  0  0  0  0
   57.9410   79.9930   29.7630 N   0  0  0  0  0  0  0  0  0  0  0  0
   58.9230   80.9600   29.6800 C   0  0  0  0  0  0  0  0  0  0  0  0
   59.6910   80.9820   28.7220 O   0  0  0  0  0  0  0  0  0  0  0  0
   58.9280   81.8570   30.7610 N   0  0  0  0  0  0  0  0  0  0  0  0
   58.8560   83.3010   30.5180 C   0  0  0  0  0  0  0  0  0  0  0  0
   59.1600   81.4180   32.1210 C   0  0  0  0  0  0  0  0  0  0  0  0
   60.4480   81.0630   32.5650 C   0  0  0  0  0  0  0  0  0  0  0  0
   60.6880   80.6600   33.8860 C   0  0  0  0  0  0  0  0  0  0  0  0
   59.6440   80.6130   34.8020 C   0  0  0  0  0  0  0  0  0  0  0  0
   58.3670   80.9760   34.3970 C   0  0  0  0  0  0  0  0  0  0  0  0
   58.1320   81.3780   33.0750 C   0  0  0  0  0  0  0  0  0  0  0  0
   55.5900   79.1180   27.6480 C   0  0  0  0  0  0  0  0  0  0  0  0
   54.2830   78.6550   27.4810 C   0  0  0  0  0  0  0  0  0  0  0  0
   52.1629   75.2700   28.5361 H   0  0  0  0  0  0  0  0  0  0  0  0
   51.3445   75.7986   27.0270 H   0  0  0  0  0  0  0  0  0  0  0  0
   53.1132   75.4847   27.0270 H   0  0  0  0  0  0  0  0  0  0  0  0
   54.2917   76.0989   29.7340 H   0  0  0  0  0  0  0  0  0  0  0  0
   56.6280   76.9126   30.0331 H   0  0  0  0  0  0  0  0  0  0  0  0
   58.4937   78.1213   29.0306 H   0  0  0  0  0  0  0  0  0  0  0  0
   58.2109   79.3986   27.7881 H   0  0  0  0  0  0  0  0  0  0  0  0
   57.7680   79.6700   30.7030 H   0  0  0  0  0  0  0  0  0  0  0  0
   58.8294   83.8338   31.4800 H   0  0  0  0  0  0  0  0  0  0  0  0
   59.7393   83.6210   29.9459 H   0  0  0  0  0  0  0  0  0  0  0  0
   57.9452   83.5316   29.9459 H   0  0  0  0  0  0  0  0  0  0  0  0
   61.2884   81.1029   31.8564 H   0  0  0  0  0  0  0  0  0  0  0  0
   61.7050   80.3803   34.1982 H   0  0  0  0  0  0  0  0  0  0  0  0
   59.8278   80.2913   35.8377 H   0  0  0  0  0  0  0  0  0  0  0  0
   57.5357   80.9481   35.1168 H   0  0  0  0  0  0  0  0  0  0  0  0
   57.1141   81.6700   32.7774 H   0  0  0  0  0  0  0  0  0  0  0  0
   55.9506   79.9683   27.0505 H   0  0  0  0  0  0  0  0  0  0  0  0
   53.6212   79.1470   26.7530 H   0  0  0  0  0  0  0  0  0  0  0  0
  1  2  1  0
  2  3  1  0
  3  4  1  0
  4  5  2  0
  5  6  1  0
  6  7  1  0
  7  8  1  0
  8  9  1  0
  9 10  2  0
  9 11  1  0
 11 12  1  0
 11 13  1  0
 13 14  2  0
 14 15  1  0
 15 16  2  0
 16 17  1  0
 17 18  2  0
  6 19  2  0
 19 20  1  0
 20  3  2  0
 18 13  1  0
  1 21  1  0
  1 22  1  0
  1 23  1  0
  4 24  1  0
  5 25  1  0
  7 26  1  0
  7 27  1  0
  8 28  1  0
 12 29  1  0
 12 30  1  0
 12 31  1  0
 14 32  1  0
 15 33  1  0
 16 34  1  0
 17 35  1  0
 18 36  1  0
 19 37  1  0
 20 38  1  0
M  END
>  <meeko>  (1) 
{"is_sidechain": false}

>  <smiles>  (1) 
COc1ccc(CNC(=O)N(C)c2ccccc2)cc1

>  <vina_score>  (1) 
-7.149

>  <job_id>  (1) 
0eee76165cb12af5

$$$$
