
     RDKit          3D

 67 72  0  0  0  0  0  0  0  0999 V2000
   52.5010   83.0270   24.2410 C   0  0  0  0  0  0  0  0  0  0  0  0
   52.5620   81.5920   24.5410 N   0  0  0  0  0  0  0  0  0  0  0  0
   52.9430   80.8410   23.3340 C   0  0  0  0  0  0  0  0  0  0  0  0
   52.5640   79.3540   23.3660 C   0  0  0  0  0  0  0  0  0  0  0  0
   53.6040   78.3980   23.9500 C   0  0  0  0  0  0  0  0  0  0  0  0
   53.3140   77.9810   25.3970 C   0  0  0  0  0  0  0  0  0  0  0  0
   53.8450   78.9750   26.3270 N   0  0  0  0  0  0  0  0  0  0  0  0
   54.4330   78.4620   27.4860 C   0  0  0  0  0  0  0  0  0  0  0  0
   53.7410   77.4570   28.0510 N   0  0  0  0  0  0  0  0  0  0  0  0
   54.2470   76.9270   29.1660 C   0  0  0  0  0  0  0  0  0  0  0  0
   55.3810   77.2930   29.7710 N   0  0  0  0  0  0  0  0  0  0  0  0
   56.0740   78.2850   29.2030 C   0  0  0  0  0  0  0  0  0  0  0  0
   57.2650   78.6840   29.8070 C   0  0  0  0  0  0  0  0  0  0  0  0
   58.0770   79.7040   29.3010 C   0  0  0  0  0  0  0  0  0  0  0  0
   59.2760   80.1220   29.8890 N   0  0  0  0  0  0  0  0  0  0  0  0
   59.6810   81.2800   30.5480 C   0  0  0  0  0  0  0  0  0  0  0  0
   59.6380   82.4850   29.9570 N   0  0  0  0  0  0  0  0  0  0  0  0
   60.0450   83.5550   30.6640 C   0  0  0  0  0  0  0  0  0  0  0  0
   60.4810   83.4730   31.9600 C   0  0  0  0  0  0  0  0  0  0  0  0
   60.5010   82.1870   32.4730 C   0  0  0  0  0  0  0  0  0  0  0  0
   60.1110   81.0890   31.8060 N   0  0  0  0  0  0  0  0  0  0  0  0
   60.9460   82.0300   33.8450 C   0  0  0  0  0  0  0  0  0  0  0  0
   61.1420   83.0890   34.7120 C   0  0  0  0  0  0  0  0  0  0  0  0
   61.5960   82.5120   35.9300 C   0  0  0  0  0  0  0  0  0  0  0  0
   61.9350   83.1790   37.1990 C   0  0  0  0  0  0  0  0  0  0  0  0
   61.2170   82.7680   38.2950 N   0  0  0  0  0  0  0  0  0  0  0  0
   62.8140   84.0250   37.3360 O   0  0  0  0  0  0  0  0  0  0  0  0
   61.6880   81.1740   35.8010 N   0  0  0  0  0  0  0  0  0  0  0  0
   61.2920   80.9100   34.5390 N   0  0  0  0  0  0  0  0  0  0  0  0
   61.2990   79.5440   34.0730 C   0  0  0  0  0  0  0  0  0  0  0  0
   60.8800   84.4940   34.2850 C   0  0  0  0  0  0  0  0  0  0  0  0
   61.0010   84.6520   32.7460 C   0  0  0  0  0  0  0  0  0  0  0  0
   57.6540   80.3370   28.1310 C   0  0  0  0  0  0  0  0  0  0  0  0
   56.4660   79.9600   27.5030 C   0  0  0  0  0  0  0  0  0  0  0  0
   55.6530   78.9280   28.0320 C   0  0  0  0  0  0  0  0  0  0  0  0
   53.0620   80.1900   26.5670 C   0  0  0  0  0  0  0  0  0  0  0  0
   53.5100   81.3500   25.6570 C   0  0  0  0  0  0  0  0  0  0  0  0
   52.4768   83.5974   25.1812 H   0  0  0  0  0  0  0  0  0  0  0  0
   53.3876   83.3178   23.6584 H   0  0  0  0  0  0  0  0  0  0  0  0
   51.5929   83.2415   23.6584 H   0  0  0  0  0  0  0  0  0  0  0  0
   52.4454   81.3043   22.4693 H   0  0  0  0  0  0  0  0  0  0  0  0
   54.0404   80.8838   23.2712 H   0  0  0  0  0  0  0  0  0  0  0  0
   51.6463   79.2557   23.9644 H   0  0  0  0  0  0  0  0  0  0  0  0
   52.4557   79.0582   22.3121 H   0  0  0  0  0  0  0  0  0  0  0  0
   53.6320   77.4922   23.3265 H   0  0  0  0  0  0  0  0  0  0  0  0
   54.5651   78.9331   23.9561 H   0  0  0  0  0  0  0  0  0  0  0  0
   52.2266   77.8955   25.5391 H   0  0  0  0  0  0  0  0  0  0  0  0
   53.7969   77.0125   25.5940 H   0  0  0  0  0  0  0  0  0  0  0  0
   53.6760   76.1104   29.6320 H   0  0  0  0  0  0  0  0  0  0  0  0
   57.5820   78.1713   30.7271 H   0  0  0  0  0  0  0  0  0  0  0  0
   60.0510   79.4770   29.8600 H   0  0  0  0  0  0  0  0  0  0  0  0
   60.0268   84.5419   30.1785 H   0  0  0  0  0  0  0  0  0  0  0  0
   61.5950   83.0940   39.1750 H   0  0  0  0  0  0  0  0  0  0  0  0
   60.7970   81.8500   38.2880 H   0  0  0  0  0  0  0  0  0  0  0  0
   61.3025   78.8621   34.9362 H   0  0  0  0  0  0  0  0  0  0  0  0
   60.4018   79.3598   33.4638 H   0  0  0  0  0  0  0  0  0  0  0  0
   62.1981   79.3690   33.4638 H   0  0  0  0  0  0  0  0  0  0  0  0
   59.8635   84.7782   34.5948 H   0  0  0  0  0  0  0  0  0  0  0  0
   61.6298   85.1445   34.7590 H   0  0  0  0  0  0  0  0  0  0  0  0
   60.4330   85.5447   32.4452 H   0  0  0  0  0  0  0  0  0  0  0  0
   62.0745   84.7337   32.5202 H   0  0  0  0  0  0  0  0  0  0  0  0
   58.2647   81.1432   27.6985 H   0  0  0  0  0  0  0  0  0  0  0  0
   56.1557   80.4734   26.5810 H   0  0  0  0  0  0  0  0  0  0  0  0
   52.0012   79.9740   26.3720 H   0  0  0  0  0  0  0  0  0  0  0  0
   53.2182   80.4960   27.6120 H   0  0  0  0  0  0  0  0  0  0  0  0
   53.5842   82.2655   26.2623 H   0  0  0  0  0  0  0  0  0  0  0  0
   54.4813   81.0768   25.2188 H   0  0  0  0  0  0  0  0  0  0  0  0
  1  2  1  0
  2  3  1  0
  3  4  1  0
  4  5  1  0
  5  6  1  0
  6  7  1  0
  7  8  1  0
  8  9  1  0
  9 10  2  0
 10 11  1  0
 11 12  2  0
 12 13  1  0
 13 14  2  0
 14 15  1  0
 15 16  1  0
 16 17  2  0
 17 18  1  0
 18 19  2  0
 19 20  1  0
 20 21  2  0
 20 22  1  0
 22 23  2  0
 23 24  1  0
 24 25  1  0
 25 26  1  0
 25 27  2  0
 24 28  2  0
 28 29  1  0
 29 30  1  0
 23 31  1  0
 31 32  1  0
 14 33  1  0
 33 34  2  0
 34 35  1  0
  7 36  1  0
 36 37  1  0
 37  2  1  0
 35  8  2  0
 35 12  1  0
 21 16  1  0
 29 22  1  0
 32 19  1  0
  1 38  1  0
  1 39  1  0
  1 40  1  0
  3 41  1  0
  3 42  1  0
  4 43  1  0
  4 44  1  0
  5 45  1  0
  5 46  1  0
  6 47  1  0
  6 48  1  0
 10 49  1  0
 13 50  1  0
 15 51  1  0
 18 52  1  0
 26 53  1  0
 26 54  1  0
 30 55  1  0
 30 56  1  0
 30 57  1  0
 31 58  1  0
 31 59  1  0
 32 60  1  0
 32 61  1  0
 33 62  1  0
 34 63  1  0
 36 64  1  0
 36 65  1  0
 37 66  1  0
 37 67  1  0
M  END
>  <meeko>  (1) 
{"is_sidechain": false}

>  <smiles>  (1) 
CN1CCCCN(c2ncnc3cc(Nc4ncc5c(n4)-c4c(c(C(N)=O)nn4C)CC5)ccc23)CC1

>  <vina_score>  (1) 
-6.951

>  <job_id>  (1) 
0efb426f4bdea82b

$$$$
