
     RDKit          3D

 38 40  0  0  0  0  0  0  0  0999 V2000
   52.9560   77.5830   26.8240 O   0  0  0  0  0  0  0  0  0  0  0  0
   53.4880   78.6710   26.6120 C   0  0  0  0  0  0  0  0  0  0  0  0
   52.9660   79.4530   25.4800 C   0  0  0  0  0  0  0  0  0  0  0  0
   52.1840   80.5840   25.7440 C   0  0  0  0  0  0  0  0  0  0  0  0
   51.7060   81.3580   24.6830 C   0  0  0  0  0  0  0  0  0  0  0  0
   52.0190   81.0110   23.3670 C   0  0  0  0  0  0  0  0  0  0  0  0
   52.8180   79.8950   23.1080 C   0  0  0  0  0  0  0  0  0  0  0  0
   53.2940   79.1260   24.1670 C   0  0  0  0  0  0  0  0  0  0  0  0
   54.0680   78.0650   23.8930 F   0  0  0  0  0  0  0  0  0  0  0  0
   54.5620   79.1600   27.3490 N   0  0  0  0  0  0  0  0  0  0  0  0
   55.3610   80.3280   26.9810 C   0  0  0  0  0  0  0  0  0  0  0  0
   56.7730   80.2010   27.4680 C   0  0  0  0  0  0  0  0  0  0  0  0
   57.2230   79.2010   28.2480 C   0  0  0  0  0  0  0  0  0  0  0  0
   58.5270   79.1060   28.7090 O   0  0  0  0  0  0  0  0  0  0  0  0
   58.9490   79.9930   29.6730 C   0  0  0  0  0  0  0  0  0  0  0  0
   59.6850   81.0950   29.2400 C   0  0  0  0  0  0  0  0  0  0  0  0
   60.1190   82.0490   30.1600 C   0  0  0  0  0  0  0  0  0  0  0  0
   59.8040   81.9050   31.5120 C   0  0  0  0  0  0  0  0  0  0  0  0
   59.0490   80.8140   31.9430 C   0  0  0  0  0  0  0  0  0  0  0  0
   58.6140   79.8590   31.0240 C   0  0  0  0  0  0  0  0  0  0  0  0
   56.2940   78.1470   28.7820 C   0  0  0  0  0  0  0  0  0  0  0  0
   54.8340   78.5810   28.6630 C   0  0  0  0  0  0  0  0  0  0  0  0
   51.9470   80.8620   26.7815 H   0  0  0  0  0  0  0  0  0  0  0  0
   51.0825   82.2415   24.8847 H   0  0  0  0  0  0  0  0  0  0  0  0
   51.6357   81.6175   22.5332 H   0  0  0  0  0  0  0  0  0  0  0  0
   53.0702   79.6247   22.0720 H   0  0  0  0  0  0  0  0  0  0  0  0
   55.3679   80.4260   25.8854 H   0  0  0  0  0  0  0  0  0  0  0  0
   54.9119   81.2160   27.4498 H   0  0  0  0  0  0  0  0  0  0  0  0
   57.4905   80.9786   27.1671 H   0  0  0  0  0  0  0  0  0  0  0  0
   59.9234   81.2120   28.1725 H   0  0  0  0  0  0  0  0  0  0  0  0
   60.7086   82.9135   29.8207 H   0  0  0  0  0  0  0  0  0  0  0  0
   60.1518   82.6534   32.2393 H   0  0  0  0  0  0  0  0  0  0  0  0
   58.7965   80.7067   33.0082 H   0  0  0  0  0  0  0  0  0  0  0  0
   58.0097   79.0038   31.3608 H   0  0  0  0  0  0  0  0  0  0  0  0
   56.4394   77.2185   28.2104 H   0  0  0  0  0  0  0  0  0  0  0  0
   56.5234   77.9893   29.8462 H   0  0  0  0  0  0  0  0  0  0  0  0
   54.1857   77.7047   28.8105 H   0  0  0  0  0  0  0  0  0  0  0  0
   54.6331   79.3443   29.4292 H   0  0  0  0  0  0  0  0  0  0  0  0
  1  2  2  0
  2  3  1  0
  3  4  2  0
  4  5  1  0
  5  6  2  0
  6  7  1  0
  7  8  2  0
  8  9  1  0
  2 10  1  0
 10 11  1  0
 11 12  1  0
 12 13  2  0
 13 14  1  0
 14 15  1  0
 15 16  2  0
 16 17  1  0
 17 18  2  0
 18 19  1  0
 19 20  2  0
 13 21  1  0
 21 22  1  0
  8  3  1  0
 22 10  1  0
 20 15  1  0
  4 23  1  0
  5 24  1  0
  6 25  1  0
  7 26  1  0
 11 27  1  0
 11 28  1  0
 12 29  1  0
 16 30  1  0
 17 31  1  0
 18 32  1  0
 19 33  1  0
 20 34  1  0
 21 35  1  0
 21 36  1  0
 22 37  1  0
 22 38  1  0
M  END
>  <meeko>  (1) 
{"is_sidechain": false}

>  <smiles>  (1) 
O=C(c1ccccc1F)N1CC=C(Oc2ccccc2)CC1

>  <vina_score>  (1) 
-8.078

>  <job_id>  (1) 
0f2e1160cbd9c892

$$$$
