
     RDKit          3D

 44 46  0  0  0  0  0  0  0  0999 V2000
   62.2830   83.8650   31.8710 C   0  0  0  0  0  0  0  0  0  0  0  0
   61.9210   82.6430   32.7240 C   0  0  0  0  0  0  0  0  0  0  0  0
   63.1890   81.8540   33.0720 C   0  0  0  0  0  0  0  0  0  0  0  0
   60.8830   81.7570   32.1590 N   0  0  0  0  0  0  0  0  0  0  0  0
   59.6310   81.7900   32.9320 C   0  0  0  0  0  0  0  0  0  0  0  0
   58.7400   80.6070   32.5470 C   0  0  0  0  0  0  0  0  0  0  0  0
   58.5750   80.4860   31.0580 C   0  0  0  0  0  0  0  0  0  0  0  0
   57.5350   79.7300   30.6180 N   0  0  0  0  0  0  0  0  0  0  0  0
   57.3670   79.5630   29.2820 C   0  0  0  0  0  0  0  0  0  0  0  0
   56.2100   78.7300   28.8840 C   0  0  0  0  0  0  0  0  0  0  0  0
   55.3710   79.1310   27.8230 C   0  0  0  0  0  0  0  0  0  0  0  0
   54.2710   78.3650   27.4230 C   0  0  0  0  0  0  0  0  0  0  0  0
   53.9890   77.1760   28.0910 C   0  0  0  0  0  0  0  0  0  0  0  0
   52.6010   76.1930   27.5950 S   0  0  0  0  0  0  0  0  0  0  0  0
   53.1170   74.6470   28.0200 N   0  0  0  0  0  0  0  0  0  0  0  0
   52.4910   76.2440   26.1570 O   0  0  0  0  0  0  0  0  0  0  0  0
   51.4890   76.4860   28.4720 O   0  0  0  0  0  0  0  0  0  0  0  0
   54.8070   76.7360   29.1310 C   0  0  0  0  0  0  0  0  0  0  0  0
   55.9070   77.5090   29.5200 C   0  0  0  0  0  0  0  0  0  0  0  0
   58.2460   80.1400   28.3670 C   0  0  0  0  0  0  0  0  0  0  0  0
   59.3100   80.9120   28.8300 C   0  0  0  0  0  0  0  0  0  0  0  0
   59.4920   81.0890   30.2020 C   0  0  0  0  0  0  0  0  0  0  0  0
   60.6020   81.9660   30.7300 C   0  0  0  0  0  0  0  0  0  0  0  0
   62.5334   84.7102   32.5289 H   0  0  0  0  0  0  0  0  0  0  0  0
   63.1488   83.6255   31.2361 H   0  0  0  0  0  0  0  0  0  0  0  0
   61.4265   84.1357   31.2361 H   0  0  0  0  0  0  0  0  0  0  0  0
   61.4596   83.0498   33.6359 H   0  0  0  0  0  0  0  0  0  0  0  0
   63.2924   81.7897   34.1652 H   0  0  0  0  0  0  0  0  0  0  0  0
   63.1176   80.8406   32.6502 H   0  0  0  0  0  0  0  0  0  0  0  0
   64.0666   82.3657   32.6502 H   0  0  0  0  0  0  0  0  0  0  0  0
   59.8652   81.7341   34.0053 H   0  0  0  0  0  0  0  0  0  0  0  0
   59.0982   82.7268   32.7118 H   0  0  0  0  0  0  0  0  0  0  0  0
   59.1941   79.6812   32.9302 H   0  0  0  0  0  0  0  0  0  0  0  0
   57.7454   80.7744   32.9860 H   0  0  0  0  0  0  0  0  0  0  0  0
   55.5878   80.0718   27.2958 H   0  0  0  0  0  0  0  0  0  0  0  0
   53.6353   78.6983   26.5895 H   0  0  0  0  0  0  0  0  0  0  0  0
   53.8140   74.6480   28.7640 H   0  0  0  0  0  0  0  0  0  0  0  0
   52.3010   74.0840   28.2640 H   0  0  0  0  0  0  0  0  0  0  0  0
   54.5890   75.7870   29.6427 H   0  0  0  0  0  0  0  0  0  0  0  0
   56.5493   77.1559   30.3402 H   0  0  0  0  0  0  0  0  0  0  0  0
   58.1010   79.9872   27.2874 H   0  0  0  0  0  0  0  0  0  0  0  0
   60.0039   81.3801   28.1163 H   0  0  0  0  0  0  0  0  0  0  0  0
   61.5176   81.7507   30.1596 H   0  0  0  0  0  0  0  0  0  0  0  0
   60.2745   83.0096   30.6129 H   0  0  0  0  0  0  0  0  0  0  0  0
  1  2  1  0
  2  3  1  0
  2  4  1  0
  4  5  1  0
  5  6  1  0
  6  7  1  0
  7  8  1  0
  8  9  2  0
  9 10  1  0
 10 11  1  0
 11 12  2  0
 12 13  1  0
 13 14  1  0
 14 15  1  0
 14 16  2  0
 14 17  2  0
 13 18  2  0
 18 19  1  0
  9 20  1  0
 20 21  2  0
 21 22  1  0
 22 23  1  0
 23  4  1  0
 22  7  2  0
 19 10  2  0
  1 24  1  0
  1 25  1  0
  1 26  1  0
  2 27  1  0
  3 28  1  0
  3 29  1  0
  3 30  1  0
  5 31  1  0
  5 32  1  0
  6 33  1  0
  6 34  1  0
 11 35  1  0
 12 36  1  0
 15 37  1  0
 15 38  1  0
 18 39  1  0
 19 40  1  0
 20 41  1  0
 21 42  1  0
 23 43  1  0
 23 44  1  0
M  END
>  <meeko>  (1) 
{"is_sidechain": false}

>  <smiles>  (1) 
CC(C)N1CCc2nc(-c3ccc(S(N)(=O)=O)cc3)ccc2C1

>  <vina_score>  (1) 
-7.738

>  <job_id>  (1) 
0f5fc10ef5a40ec0

$$$$
