
     RDKit          3D

 40 42  0  0  0  0  0  0  0  0999 V2000
   58.6130   80.9800   34.1470 C   0  0  0  0  0  0  0  0  0  0  0  0
   59.9400   80.9870   33.6330 O   0  0  0  0  0  0  0  0  0  0  0  0
   60.0880   81.2290   32.2960 C   0  0  0  0  0  0  0  0  0  0  0  0
   61.0020   82.1130   31.7190 C   0  0  0  0  0  0  0  0  0  0  0  0
   61.0560   82.2660   30.3300 C   0  0  0  0  0  0  0  0  0  0  0  0
   60.1890   81.5440   29.5090 C   0  0  0  0  0  0  0  0  0  0  0  0
   59.2590   80.6700   30.0840 C   0  0  0  0  0  0  0  0  0  0  0  0
   58.3160   79.8770   29.2470 C   0  0  0  0  0  0  0  0  0  0  0  0
   58.5590   79.7550   28.0530 O   0  0  0  0  0  0  0  0  0  0  0  0
   57.2560   79.3230   29.9440 N   0  0  0  0  0  0  0  0  0  0  0  0
   56.1900   78.5640   29.4180 C   0  0  0  0  0  0  0  0  0  0  0  0
   55.9360   77.2380   29.7520 C   0  0  0  0  0  0  0  0  0  0  0  0
   54.8550   76.5550   29.1750 C   0  0  0  0  0  0  0  0  0  0  0  0
   53.9880   77.1590   28.2460 C   0  0  0  0  0  0  0  0  0  0  0  0
   52.7720   76.3590   27.6120 C   0  0  0  0  0  0  0  0  0  0  0  0
   52.9080   74.8230   27.4010 C   0  0  0  0  0  0  0  0  0  0  0  0
   52.0340   74.9900   26.1410 C   0  0  0  0  0  0  0  0  0  0  0  0
   52.5260   76.4500   26.0780 C   0  0  0  0  0  0  0  0  0  0  0  0
   54.2720   78.4980   27.9250 C   0  0  0  0  0  0  0  0  0  0  0  0
   55.3490   79.1890   28.4960 C   0  0  0  0  0  0  0  0  0  0  0  0
   59.2220   80.5060   31.4730 C   0  0  0  0  0  0  0  0  0  0  0  0
   58.6457   80.9802   35.2465 H   0  0  0  0  0  0  0  0  0  0  0  0
   58.0791   81.8753   33.7959 H   0  0  0  0  0  0  0  0  0  0  0  0
   58.0885   80.0791   33.7959 H   0  0  0  0  0  0  0  0  0  0  0  0
   61.6829   82.6919   32.3602 H   0  0  0  0  0  0  0  0  0  0  0  0
   61.7847   82.9582   29.8829 H   0  0  0  0  0  0  0  0  0  0  0  0
   60.2361   81.6610   28.4163 H   0  0  0  0  0  0  0  0  0  0  0  0
   57.2740   79.4110   30.9510 H   0  0  0  0  0  0  0  0  0  0  0  0
   56.5867   76.7216   30.4730 H   0  0  0  0  0  0  0  0  0  0  0  0
   54.6785   75.5073   29.4597 H   0  0  0  0  0  0  0  0  0  0  0  0
   52.0694   76.7880   28.3416 H   0  0  0  0  0  0  0  0  0  0  0  0
   53.9332   74.4753   27.2059 H   0  0  0  0  0  0  0  0  0  0  0  0
   52.6515   74.1042   28.1932 H   0  0  0  0  0  0  0  0  0  0  0  0
   52.3363   74.3665   25.2867 H   0  0  0  0  0  0  0  0  0  0  0  0
   50.9630   74.7392   26.1416 H   0  0  0  0  0  0  0  0  0  0  0  0
   53.4337   76.6030   25.4757 H   0  0  0  0  0  0  0  0  0  0  0  0
   51.9131   77.2493   25.6359 H   0  0  0  0  0  0  0  0  0  0  0  0
   53.6279   79.0201   27.2022 H   0  0  0  0  0  0  0  0  0  0  0  0
   55.5338   80.2362   28.2143 H   0  0  0  0  0  0  0  0  0  0  0  0
   58.5050   79.8019   31.9203 H   0  0  0  0  0  0  0  0  0  0  0  0
  1  2  1  0
  2  3  1  0
  3  4  1  0
  4  5  2  0
  5  6  1  0
  6  7  2  0
  7  8  1  0
  8  9  2  0
  8 10  1  0
 10 11  1  0
 11 12  1  0
 12 13  2  0
 13 14  1  0
 14 15  1  0
 15 16  1  0
 16 17  1  0
 17 18  1  0
 14 19  2  0
 19 20  1  0
  7 21  1  0
 21  3  2  0
 20 11  2  0
 18 15  1  0
  1 22  1  0
  1 23  1  0
  1 24  1  0
  4 25  1  0
  5 26  1  0
  6 27  1  0
 10 28  1  0
 12 29  1  0
 13 30  1  0
 15 31  1  0
 16 32  1  0
 16 33  1  0
 17 34  1  0
 17 35  1  0
 18 36  1  0
 18 37  1  0
 19 38  1  0
 20 39  1  0
 21 40  1  0
M  END
>  <meeko>  (1) 
{"is_sidechain": false}

>  <smiles>  (1) 
COc1cccc(C(=O)Nc2ccc(C3CCC3)cc2)c1

>  <vina_score>  (1) 
-7.799

>  <job_id>  (1) 
0f6b6bfc9578e2e1

$$$$
