
     RDKit          3D

 54 57  0  0  0  0  0  0  0  0999 V2000
   62.2230   83.1510   30.7540 C   0  0  0  0  0  0  0  0  0  0  0  0
   60.6380   83.0660   31.5620 S   0  0  0  0  0  0  0  0  0  0  0  0
   60.8760   82.9610   32.9850 O   0  0  0  0  0  0  0  0  0  0  0  0
   59.7750   84.0920   31.0180 O   0  0  0  0  0  0  0  0  0  0  0  0
   60.0540   81.5610   31.0170 N   0  0  0  0  0  0  0  0  0  0  0  0
   59.9970   81.3560   29.5440 C   0  0  0  0  0  0  0  0  0  0  0  0
   58.5630   81.3650   29.0350 C   0  0  0  0  0  0  0  0  0  0  0  0
   57.7170   80.2590   29.6870 C   0  0  0  0  0  0  0  0  0  0  0  0
   57.6610   79.0610   28.8550 N   0  0  0  0  0  0  0  0  0  0  0  0
   56.4420   78.4360   28.6880 C   0  0  0  0  0  0  0  0  0  0  0  0
   55.9630   77.6060   29.6170 N   0  0  0  0  0  0  0  0  0  0  0  0
   54.7790   77.0170   29.3650 C   0  0  0  0  0  0  0  0  0  0  0  0
   54.0370   77.2330   28.2270 C   0  0  0  0  0  0  0  0  0  0  0  0
   52.7520   76.5210   28.0190 C   0  0  0  0  0  0  0  0  0  0  0  0
   52.6400   75.3930   28.7770 F   0  0  0  0  0  0  0  0  0  0  0  0
   51.6700   77.2800   28.3480 F   0  0  0  0  0  0  0  0  0  0  0  0
   52.5510   76.1120   26.7380 F   0  0  0  0  0  0  0  0  0  0  0  0
   54.5930   78.1350   27.3470 C   0  0  0  0  0  0  0  0  0  0  0  0
   53.9800   78.5400   26.0980 C   0  0  0  0  0  0  0  0  0  0  0  0
   53.6840   77.7730   24.9600 C   0  0  0  0  0  0  0  0  0  0  0  0
   53.1690   78.5010   23.9700 N   0  0  0  0  0  0  0  0  0  0  0  0
   53.1520   79.7710   24.4280 N   0  0  0  0  0  0  0  0  0  0  0  0
   52.6230   80.8580   23.6620 C   0  0  0  0  0  0  0  0  0  0  0  0
   52.0080   80.5690   22.4240 C   0  0  0  0  0  0  0  0  0  0  0  0
   51.4950   81.5880   21.6140 C   0  0  0  0  0  0  0  0  0  0  0  0
   51.5840   82.9180   22.0210 C   0  0  0  0  0  0  0  0  0  0  0  0
   51.0600   83.9640   21.1940 C   0  0  0  0  0  0  0  0  0  0  0  0
   50.6320   84.8070   20.5200 N   0  0  0  0  0  0  0  0  0  0  0  0
   52.1850   83.2200   23.2440 C   0  0  0  0  0  0  0  0  0  0  0  0
   52.7030   82.2050   24.0680 C   0  0  0  0  0  0  0  0  0  0  0  0
   53.3350   82.7700   25.5780 Cl  0  0  0  0  0  0  0  0  0  0  0  0
   53.6740   79.8270   25.7130 C   0  0  0  0  0  0  0  0  0  0  0  0
   55.7910   78.7270   27.5610 N   0  0  0  0  0  0  0  0  0  0  0  0
   58.2660   79.8580   31.0640 C   0  0  0  0  0  0  0  0  0  0  0  0
   58.8710   81.0610   31.7690 C   0  0  0  0  0  0  0  0  0  0  0  0
   63.0191   83.1937   31.5119 H   0  0  0  0  0  0  0  0  0  0  0  0
   62.3625   82.2590   30.1255 H   0  0  0  0  0  0  0  0  0  0  0  0
   62.2663   84.0528   30.1255 H   0  0  0  0  0  0  0  0  0  0  0  0
   60.5572   82.1629   29.0488 H   0  0  0  0  0  0  0  0  0  0  0  0
   60.4386   80.3750   29.3146 H   0  0  0  0  0  0  0  0  0  0  0  0
   58.1103   82.3410   29.2642 H   0  0  0  0  0  0  0  0  0  0  0  0
   58.5848   81.1833   27.9503 H   0  0  0  0  0  0  0  0  0  0  0  0
   56.7071   80.6801   29.8001 H   0  0  0  0  0  0  0  0  0  0  0  0
   58.1210   79.1000   27.9530 H   0  0  0  0  0  0  0  0  0  0  0  0
   54.3799   76.3194   30.1160 H   0  0  0  0  0  0  0  0  0  0  0  0
   53.8583   76.6890   24.8930 H   0  0  0  0  0  0  0  0  0  0  0  0
   51.9309   79.5236   22.0904 H   0  0  0  0  0  0  0  0  0  0  0  0
   51.0202   81.3388   20.6535 H   0  0  0  0  0  0  0  0  0  0  0  0
   52.2546   84.2687   23.5685 H   0  0  0  0  0  0  0  0  0  0  0  0
   53.8176   80.7359   26.3158 H   0  0  0  0  0  0  0  0  0  0  0  0
   57.4463   79.4543   31.6765 H   0  0  0  0  0  0  0  0  0  0  0  0
   59.0482   79.0969   30.9263 H   0  0  0  0  0  0  0  0  0  0  0  0
   58.1179   81.8602   31.8334 H   0  0  0  0  0  0  0  0  0  0  0  0
   59.1899   80.7607   32.7780 H   0  0  0  0  0  0  0  0  0  0  0  0
  1  2  1  0
  2  3  2  0
  2  4  2  0
  2  5  1  0
  5  6  1  0
  6  7  1  0
  7  8  1  0
  8  9  1  0
  9 10  1  0
 10 11  2  0
 11 12  1  0
 12 13  2  0
 13 14  1  0
 14 15  1  0
 14 16  1  0
 14 17  1  0
 13 18  1  0
 18 19  1  0
 19 20  1  0
 20 21  2  0
 21 22  1  0
 22 23  1  0
 23 24  1  0
 24 25  2  0
 25 26  1  0
 26 27  1  0
 27 28  3  0
 26 29  2  0
 29 30  1  0
 30 31  1  0
 22 32  1  0
 18 33  2  0
  8 34  1  0
 34 35  1  0
 35  5  1  0
 33 10  1  0
 32 19  2  0
 30 23  2  0
  1 36  1  0
  1 37  1  0
  1 38  1  0
  6 39  1  0
  6 40  1  0
  7 41  1  0
  7 42  1  0
  8 43  1  0
  9 44  1  0
 12 45  1  0
 20 46  1  0
 24 47  1  0
 25 48  1  0
 29 49  1  0
 32 50  1  0
 34 51  1  0
 34 52  1  0
 35 53  1  0
 35 54  1  0
M  END
>  <meeko>  (1) 
{"is_sidechain": false}

>  <smiles>  (1) 
CS(=O)(=O)N1CCC(Nc2ncc(C(F)(F)F)c(-c3cnn(-c4ccc(C#N)cc4Cl)c3)n2)CC1

>  <vina_score>  (1) 
-9.124

>  <job_id>  (1) 
0f921d125a53878f

$$$$
