
     RDKit          3D

 58 62  0  0  0  0  0  0  0  0999 V2000
   60.7840   83.2660   31.4920 N   0  0  0  0  0  0  0  0  0  0  0  0
   60.0780   82.1770   30.9440 C   0  0  0  0  0  0  0  0  0  0  0  0
   60.0850   81.9940   29.5580 C   0  0  0  0  0  0  0  0  0  0  0  0
   59.3150   80.9890   28.9670 C   0  0  0  0  0  0  0  0  0  0  0  0
   58.4840   80.1850   29.7460 C   0  0  0  0  0  0  0  0  0  0  0  0
   57.7280   79.1650   29.1560 N   0  0  0  0  0  0  0  0  0  0  0  0
   56.4520   79.2060   29.3650 C   0  0  0  0  0  0  0  0  0  0  0  0
   55.4760   78.2590   28.8040 C   0  0  0  0  0  0  0  0  0  0  0  0
   55.3120   76.9100   29.4280 C   0  0  0  0  0  0  0  0  0  0  0  0
   55.9350   76.4820   30.3820 O   0  0  0  0  0  0  0  0  0  0  0  0
   54.3300   76.2590   28.7230 N   0  0  0  0  0  0  0  0  0  0  0  0
   53.8800   77.0440   27.7220 C   0  0  0  0  0  0  0  0  0  0  0  0
   52.9110   76.7860   26.8390 C   0  0  0  0  0  0  0  0  0  0  0  0
   52.5730   77.7850   25.8390 C   0  0  0  0  0  0  0  0  0  0  0  0
   53.2300   78.9620   25.7280 C   0  0  0  0  0  0  0  0  0  0  0  0
   52.9450   79.9090   24.7610 N   0  0  0  0  0  0  0  0  0  0  0  0
   53.6850   81.0520   24.6010 C   0  0  0  0  0  0  0  0  0  0  0  0
   54.7220   81.3360   25.4000 C   0  0  0  0  0  0  0  0  0  0  0  0
   55.0620   80.4090   26.4680 C   0  0  0  0  0  0  0  0  0  0  0  0
   54.3600   79.2730   26.6830 C   0  0  0  0  0  0  0  0  0  0  0  0
   54.6370   78.2920   27.7450 C   0  0  0  0  0  0  0  0  0  0  0  0
   58.4300   80.3910   31.1260 C   0  0  0  0  0  0  0  0  0  0  0  0
   59.1930   81.4030   31.7240 C   0  0  0  0  0  0  0  0  0  0  0  0
   59.0240   81.6580   33.4890 S   0  0  0  0  0  0  0  0  0  0  0  0
   60.4930   80.8770   34.0470 C   0  0  0  0  0  0  0  0  0  0  0  0
   61.6130   81.5030   33.9120 N   0  0  0  0  0  0  0  0  0  0  0  0
   62.6630   80.7320   34.4040 N   0  0  0  0  0  0  0  0  0  0  0  0
   63.8100   80.9840   33.9630 N   0  0  0  0  0  0  0  0  0  0  0  0
   63.9520   82.0130   33.0130 C   0  0  0  0  0  0  0  0  0  0  0  0
   64.0910   83.3450   33.4300 C   0  0  0  0  0  0  0  0  0  0  0  0
   64.2730   84.3680   32.4960 C   0  0  0  0  0  0  0  0  0  0  0  0
   64.3380   84.0500   31.1370 C   0  0  0  0  0  0  0  0  0  0  0  0
   64.5630   85.3370   29.9380 S   0  0  0  0  0  0  0  0  0  0  0  0
   65.9340   86.1120   30.5370 N   0  0  0  0  0  0  0  0  0  0  0  0
   63.4880   86.2910   30.0790 O   0  0  0  0  0  0  0  0  0  0  0  0
   64.9090   84.7320   28.6750 O   0  0  0  0  0  0  0  0  0  0  0  0
   64.2050   82.7270   30.7040 C   0  0  0  0  0  0  0  0  0  0  0  0
   64.0240   81.7130   31.6460 C   0  0  0  0  0  0  0  0  0  0  0  0
   61.7260   83.3410   31.1090 H   0  0  0  0  0  0  0  0  0  0  0  0
   60.2850   84.1480   31.4180 H   0  0  0  0  0  0  0  0  0  0  0  0
   60.7034   82.6483   28.9259 H   0  0  0  0  0  0  0  0  0  0  0  0
   59.3648   80.8310   27.8795 H   0  0  0  0  0  0  0  0  0  0  0  0
   56.0679   80.0094   30.0108 H   0  0  0  0  0  0  0  0  0  0  0  0
   54.0070   75.3320   28.9530 H   0  0  0  0  0  0  0  0  0  0  0  0
   52.3741   75.8264   26.8686 H   0  0  0  0  0  0  0  0  0  0  0  0
   51.7477   77.5749   25.1428 H   0  0  0  0  0  0  0  0  0  0  0  0
   52.2080   79.7130   24.0950 H   0  0  0  0  0  0  0  0  0  0  0  0
   53.4205   81.7536   23.7962 H   0  0  0  0  0  0  0  0  0  0  0  0
   55.3070   82.2555   25.2508 H   0  0  0  0  0  0  0  0  0  0  0  0
   55.9167   80.6389   27.1212 H   0  0  0  0  0  0  0  0  0  0  0  0
   57.7839   79.7543   31.7482 H   0  0  0  0  0  0  0  0  0  0  0  0
   60.4597   79.8760   34.5018 H   0  0  0  0  0  0  0  0  0  0  0  0
   64.0564   83.5865   34.5026 H   0  0  0  0  0  0  0  0  0  0  0  0
   64.3642   85.4130   32.8271 H   0  0  0  0  0  0  0  0  0  0  0  0
   66.7570   85.5580   30.2950 H   0  0  0  0  0  0  0  0  0  0  0  0
   66.0200   87.0790   30.2260 H   0  0  0  0  0  0  0  0  0  0  0  0
   64.2427   82.4876   29.6310 H   0  0  0  0  0  0  0  0  0  0  0  0
   63.9371   80.6685   31.3122 H   0  0  0  0  0  0  0  0  0  0  0  0
  1  2  1  0
  2  3  1  0
  3  4  2  0
  4  5  1  0
  5  6  1  0
  6  7  2  3
  7  8  1  0
  8  9  1  0
  9 10  2  0
  9 11  1  0
 11 12  1  0
 12 13  2  0
 13 14  1  0
 14 15  2  0
 15 16  1  0
 16 17  1  0
 17 18  2  0
 18 19  1  0
 19 20  2  0
 20 21  1  0
  5 22  2  0
 22 23  1  0
 23 24  1  0
 24 25  1  0
 25 26  2  3
 26 27  1  0
 27 28  2  3
 28 29  1  0
 29 30  1  0
 30 31  2  0
 31 32  1  0
 32 33  1  0
 33 34  1  0
 33 35  2  0
 33 36  2  0
 32 37  2  0
 37 38  1  0
 23  2  2  0
 38 29  2  0
 21  8  2  0
 21 12  1  0
 20 15  1  0
  1 39  1  0
  1 40  1  0
  3 41  1  0
  4 42  1  0
  7 43  1  0
 11 44  1  0
 13 45  1  0
 14 46  1  0
 16 47  1  0
 17 48  1  0
 18 49  1  0
 19 50  1  0
 22 51  1  0
 25 52  1  0
 30 53  1  0
 31 54  1  0
 34 55  1  0
 34 56  1  0
 37 57  1  0
 38 58  1  0
M  END
>  <meeko>  (1) 
{"is_sidechain": false}

>  <smiles>  (1) 
Nc1ccc(N=Cc2c(=O)[nH]c3ccc4[nH]cccc4c23)cc1SC=NN=Nc1ccc(S(N)(=O)=O)cc1

>  <vina_score>  (1) 
-8.225

>  <job_id>  (1) 
0ff4eb1eb1d7b254

$$$$
