
     RDKit          3D

 61 63  0  0  0  0  0  0  0  0999 V2000
   66.2360   84.5390   30.0030 C   0  0  0  0  0  0  0  0  0  0  0  0
   65.7300   83.9330   31.6310 S   0  0  0  0  0  4  0  0  0  0  0  0
   65.3230   82.2700   31.0820 C   0  0  0  0  0  0  0  0  0  0  0  0
   66.4220   81.3580   30.6460 C   0  0  0  0  0  0  0  0  0  0  0  0
   63.8850   81.8530   31.0190 C   0  0  0  0  0  0  0  0  0  0  0  0
   63.0580   82.2880   32.2140 C   0  0  0  0  0  0  0  0  0  0  0  0
   63.2400   81.8200   33.3410 O   0  0  0  0  0  0  0  0  0  0  0  0
   61.9450   83.2810   31.9750 C   0  0  0  0  0  0  0  0  0  0  0  0
   60.5620   82.7720   32.2860 C   0  0  0  0  0  0  0  0  0  0  0  0
   59.9360   83.1360   33.2790 O   0  0  0  0  0  0  0  0  0  0  0  0
   59.9250   81.8040   31.3410 C   0  0  0  0  0  0  0  0  0  0  0  0
   59.1270   80.7840   31.8680 C   0  0  0  0  0  0  0  0  0  0  0  0
   58.5090   79.8570   31.0180 C   0  0  0  0  0  0  0  0  0  0  0  0
   58.6710   79.9200   29.6260 C   0  0  0  0  0  0  0  0  0  0  0  0
   58.0110   78.9740   28.8340 N   0  0  0  0  0  0  0  0  0  0  0  0
   56.6840   78.5820   28.6970 C   0  0  0  0  0  0  0  0  0  0  0  0
   56.0800   77.7800   29.5890 N   0  0  0  0  0  0  0  0  0  0  0  0
   54.7860   77.4700   29.3690 C   0  0  0  0  0  0  0  0  0  0  0  0
   54.0760   77.9210   28.2900 C   0  0  0  0  0  0  0  0  0  0  0  0
   52.7910   77.5830   28.1190 F   0  0  0  0  0  0  0  0  0  0  0  0
   54.7710   78.7220   27.4110 C   0  0  0  0  0  0  0  0  0  0  0  0
   54.1490   79.3090   26.2270 C   0  0  0  0  0  0  0  0  0  0  0  0
   53.6230   78.6670   25.1220 C   0  0  0  0  0  0  0  0  0  0  0  0
   53.0770   79.5490   24.2400 N   0  0  0  0  0  0  0  0  0  0  0  0
   53.2560   80.7440   24.7640 C   0  0  0  0  0  0  0  0  0  0  0  0
   52.7710   81.9940   24.1230 C   0  0  0  0  0  0  0  0  0  0  0  0
   53.9560   80.6610   25.9570 N   0  0  0  0  0  0  0  0  0  0  0  0
   54.4460   81.7670   26.7810 C   0  0  0  0  0  0  0  0  0  0  0  0
   53.3090   82.6680   27.2660 C   0  0  0  0  0  0  0  0  0  0  0  0
   55.5760   82.5790   26.1420 C   0  0  0  0  0  0  0  0  0  0  0  0
   56.0660   79.0620   27.6040 N   0  0  0  0  0  0  0  0  0  0  0  0
   59.4640   80.9510   29.1150 C   0  0  0  0  0  0  0  0  0  0  0  0
   60.0880   81.8840   29.9570 C   0  0  0  0  0  0  0  0  0  0  0  0
   66.9366   85.3781   30.1256 H   0  0  0  0  0  0  0  0  0  0  0  0
   66.7289   83.7280   29.4468 H   0  0  0  0  0  0  0  0  0  0  0  0
   65.3501   84.8793   29.4468 H   0  0  0  0  0  0  0  0  0  0  0  0
   64.5010   84.4910   31.7120 H   0  0  0  0  0  0  0  0  0  0  0  0
   66.9249   80.9407   31.5308 H   0  0  0  0  0  0  0  0  0  0  0  0
   66.0018   80.5396   30.0430 H   0  0  0  0  0  0  0  0  0  0  0  0
   67.1489   81.9219   30.0430 H   0  0  0  0  0  0  0  0  0  0  0  0
   63.4387   82.2896   30.1134 H   0  0  0  0  0  0  0  0  0  0  0  0
   63.8751   80.7531   31.0116 H   0  0  0  0  0  0  0  0  0  0  0  0
   62.1336   84.1634   32.6042 H   0  0  0  0  0  0  0  0  0  0  0  0
   61.9564   83.5031   30.8977 H   0  0  0  0  0  0  0  0  0  0  0  0
   58.9835   80.7088   32.9560 H   0  0  0  0  0  0  0  0  0  0  0  0
   57.8834   79.0629   31.4516 H   0  0  0  0  0  0  0  0  0  0  0  0
   58.5650   78.5040   28.1330 H   0  0  0  0  0  0  0  0  0  0  0  0
   54.2748   76.8207   30.0950 H   0  0  0  0  0  0  0  0  0  0  0  0
   53.6430   77.5773   24.9733 H   0  0  0  0  0  0  0  0  0  0  0  0
   52.4895   82.7194   24.9005 H   0  0  0  0  0  0  0  0  0  0  0  0
   53.5696   82.4188   23.4970 H   0  0  0  0  0  0  0  0  0  0  0  0
   51.8949   81.7690   23.4970 H   0  0  0  0  0  0  0  0  0  0  0  0
   54.8971   81.2846   27.6607 H   0  0  0  0  0  0  0  0  0  0  0  0
   53.2942   82.6797   28.3658 H   0  0  0  0  0  0  0  0  0  0  0  0
   53.4654   83.6900   26.8905 H   0  0  0  0  0  0  0  0  0  0  0  0
   52.3498   82.2822   26.8905 H   0  0  0  0  0  0  0  0  0  0  0  0
   56.1981   83.0260   26.9315 H   0  0  0  0  0  0  0  0  0  0  0  0
   56.1950   81.9178   25.5177 H   0  0  0  0  0  0  0  0  0  0  0  0
   55.1468   83.3765   25.5177 H   0  0  0  0  0  0  0  0  0  0  0  0
   59.6023   81.0331   28.0268 H   0  0  0  0  0  0  0  0  0  0  0  0
   60.7087   82.6824   29.5243 H   0  0  0  0  0  0  0  0  0  0  0  0
  1  2  1  0
  2  3  2  3
  3  4  1  0
  3  5  1  0
  5  6  1  0
  6  7  2  0
  6  8  1  0
  8  9  1  0
  9 10  2  0
  9 11  1  0
 11 12  1  0
 12 13  2  0
 13 14  1  0
 14 15  1  0
 15 16  1  0
 16 17  2  0
 17 18  1  0
 18 19  2  0
 19 20  1  0
 19 21  1  0
 21 22  1  0
 22 23  2  0
 23 24  1  0
 24 25  2  0
 25 26  1  0
 25 27  1  0
 27 28  1  0
 28 29  1  0
 28 30  1  0
 21 31  2  0
 14 32  2  0
 32 33  1  0
 33 11  2  0
 31 16  1  0
 27 22  1  0
  1 34  1  0
  1 35  1  0
  1 36  1  0
  2 37  1  0
  4 38  1  0
  4 39  1  0
  4 40  1  0
  5 41  1  0
  5 42  1  0
  8 43  1  0
  8 44  1  0
 12 45  1  0
 13 46  1  0
 15 47  1  0
 18 48  1  0
 23 49  1  0
 26 50  1  0
 26 51  1  0
 26 52  1  0
 28 53  1  0
 29 54  1  0
 29 55  1  0
 29 56  1  0
 30 57  1  0
 30 58  1  0
 30 59  1  0
 32 60  1  0
 33 61  1  0
M  END
>  <meeko>  (1) 
{"is_sidechain": false}

>  <smiles>  (1) 
C[SH]=C(C)CC(=O)CC(=O)c1ccc(Nc2ncc(F)c(-c3cnc(C)n3C(C)C)n2)cc1

>  <vina_score>  (1) 
-8.751

>  <job_id>  (1) 
10046d360d77b004

$$$$
