
     RDKit          3D

 42 43  0  0  0  0  0  0  0  0999 V2000
   53.2170   76.7510   27.2790 C   0  0  0  0  0  0  0  0  0  0  0  0
   53.2320   78.0010   27.9740 O   0  0  0  0  0  0  0  0  0  0  0  0
   54.4820   78.5740   27.9050 C   0  0  0  0  0  0  0  0  0  0  0  0
   55.4540   78.1410   28.8270 C   0  0  0  0  0  0  0  0  0  0  0  0
   55.1380   77.1050   29.8680 C   0  0  0  0  0  0  0  0  0  0  0  0
   56.7290   78.7170   28.7850 C   0  0  0  0  0  0  0  0  0  0  0  0
   57.0390   79.6730   27.8210 C   0  0  0  0  0  0  0  0  0  0  0  0
   56.0810   80.0600   26.8830 C   0  0  0  0  0  0  0  0  0  0  0  0
   54.7820   79.5150   26.8950 C   0  0  0  0  0  0  0  0  0  0  0  0
   53.8110   79.9240   25.8660 C   0  0  0  0  0  0  0  0  0  0  0  0
   53.0940   81.1190   25.9540 C   0  0  0  0  0  0  0  0  0  0  0  0
   52.1830   81.4660   24.9530 C   0  0  0  0  0  0  0  0  0  0  0  0
   51.9930   80.6260   23.8580 C   0  0  0  0  0  0  0  0  0  0  0  0
   51.0510   81.0130   22.9010 N   0  0  0  0  0  0  0  0  0  0  0  0
   51.4450   81.6800   21.6460 C   0  0  0  0  0  0  0  0  0  0  0  0
   51.0610   83.1670   21.6450 C   0  0  0  0  0  0  0  0  0  0  0  0
   50.6390   80.9820   20.5260 C   0  0  0  0  0  0  0  0  0  0  0  0
   52.9350   81.4790   21.3330 C   0  0  0  0  0  0  0  0  0  0  0  0
   52.6660   79.4700   23.7580 N   0  0  0  0  0  0  0  0  0  0  0  0
   53.5460   79.1460   24.7420 C   0  0  0  0  0  0  0  0  0  0  0  0
   53.2071   75.9267   28.0073 H   0  0  0  0  0  0  0  0  0  0  0  0
   52.3181   76.6933   26.6476 H   0  0  0  0  0  0  0  0  0  0  0  0
   54.1143   76.6717   26.6476 H   0  0  0  0  0  0  0  0  0  0  0  0
   55.2705   77.5395   30.8698 H   0  0  0  0  0  0  0  0  0  0  0  0
   54.0970   76.7705   29.7482 H   0  0  0  0  0  0  0  0  0  0  0  0
   55.8151   76.2464   29.7482 H   0  0  0  0  0  0  0  0  0  0  0  0
   57.4908   78.4127   29.5179 H   0  0  0  0  0  0  0  0  0  0  0  0
   58.0419   80.1244   27.7989 H   0  0  0  0  0  0  0  0  0  0  0  0
   56.3455   80.8057   26.1188 H   0  0  0  0  0  0  0  0  0  0  0  0
   53.2467   81.7886   26.8132 H   0  0  0  0  0  0  0  0  0  0  0  0
   51.6145   82.4046   25.0297 H   0  0  0  0  0  0  0  0  0  0  0  0
   50.3070   81.5190   23.3740 H   0  0  0  0  0  0  0  0  0  0  0  0
   50.9692   83.5227   22.6819 H   0  0  0  0  0  0  0  0  0  0  0  0
   51.8390   83.7463   21.1262 H   0  0  0  0  0  0  0  0  0  0  0  0
   50.0998   83.2971   21.1262 H   0  0  0  0  0  0  0  0  0  0  0  0
   49.8801   80.3248   20.9755 H   0  0  0  0  0  0  0  0  0  0  0  0
   50.1438   81.7413   19.9029 H   0  0  0  0  0  0  0  0  0  0  0  0
   51.3198   80.3834   19.9029 H   0  0  0  0  0  0  0  0  0  0  0  0
   53.5002   81.4027   22.2736 H   0  0  0  0  0  0  0  0  0  0  0  0
   53.0659   80.5551   20.7506 H   0  0  0  0  0  0  0  0  0  0  0  0
   53.3061   82.3352   20.7506 H   0  0  0  0  0  0  0  0  0  0  0  0
   54.0910   78.1957   24.6427 H   0  0  0  0  0  0  0  0  0  0  0  0
  1  2  1  0
  2  3  1  0
  3  4  1  0
  4  5  1  0
  4  6  2  0
  6  7  1  0
  7  8  2  0
  8  9  1  0
  9 10  1  0
 10 11  2  0
 11 12  1  0
 12 13  2  0
 13 14  1  0
 14 15  1  0
 15 16  1  0
 15 17  1  0
 15 18  1  0
 13 19  1  0
 19 20  2  0
  9  3  2  0
 20 10  1  0
  1 21  1  0
  1 22  1  0
  1 23  1  0
  5 24  1  0
  5 25  1  0
  5 26  1  0
  6 27  1  0
  7 28  1  0
  8 29  1  0
 11 30  1  0
 12 31  1  0
 14 32  1  0
 16 33  1  0
 16 34  1  0
 16 35  1  0
 17 36  1  0
 17 37  1  0
 17 38  1  0
 18 39  1  0
 18 40  1  0
 18 41  1  0
 20 42  1  0
M  END
>  <meeko>  (1) 
{"is_sidechain": false}

>  <smiles>  (1) 
COc1c(C)cccc1-c1ccc(NC(C)(C)C)nc1

>  <vina_score>  (1) 
-7.287

>  <job_id>  (1) 
108395a9756c0d58

$$$$
