
     RDKit          3D

 39 40  0  0  0  0  0  0  0  0999 V2000
   52.6210   81.8020   25.4980 C   0  0  0  0  0  0  0  0  0  0  0  0
   52.9370   80.8600   24.4310 N   0  0  0  0  0  0  0  0  0  0  0  0
   52.5620   81.2700   23.0890 C   0  0  0  0  0  0  0  0  0  0  0  0
   53.3090   79.5330   24.6330 C   0  0  0  0  0  0  0  0  0  0  0  0
   53.2240   78.6650   23.7660 O   0  0  0  0  0  0  0  0  0  0  0  0
   53.8530   79.1270   25.9490 C   0  0  0  0  0  0  0  0  0  0  0  0
   53.1600   78.2280   26.7640 C   0  0  0  0  0  0  0  0  0  0  0  0
   53.6860   77.8890   28.0080 C   0  0  0  0  0  0  0  0  0  0  0  0
   54.8890   78.4570   28.4430 C   0  0  0  0  0  0  0  0  0  0  0  0
   55.5720   79.3790   27.6450 C   0  0  0  0  0  0  0  0  0  0  0  0
   56.7730   80.0130   28.0230 N   0  0  0  0  0  0  0  0  0  0  0  0
   57.9860   79.4210   28.3310 C   0  0  0  0  0  0  0  0  0  0  0  0
   58.2260   78.2160   28.3250 O   0  0  0  0  0  0  0  0  0  0  0  0
   59.0590   80.4130   28.7670 C   0  0  0  0  0  0  0  0  0  0  0  0
   58.7800   81.0970   30.0850 C   0  0  0  0  0  0  0  0  0  0  0  0
   58.8340   82.4950   30.1840 C   0  0  0  0  0  0  0  0  0  0  0  0
   58.5600   83.1280   31.3960 C   0  0  0  0  0  0  0  0  0  0  0  0
   58.2330   82.3730   32.5210 C   0  0  0  0  0  0  0  0  0  0  0  0
   58.1840   80.9830   32.4350 C   0  0  0  0  0  0  0  0  0  0  0  0
   58.4580   80.3460   31.2240 C   0  0  0  0  0  0  0  0  0  0  0  0
   55.0410   79.7180   26.3960 C   0  0  0  0  0  0  0  0  0  0  0  0
   52.7829   81.3193   26.4731 H   0  0  0  0  0  0  0  0  0  0  0  0
   53.2723   82.6843   25.4130 H   0  0  0  0  0  0  0  0  0  0  0  0
   51.5693   82.1130   25.4130 H   0  0  0  0  0  0  0  0  0  0  0  0
   51.8206   82.0806   23.1470 H   0  0  0  0  0  0  0  0  0  0  0  0
   53.4534   81.6261   22.5519 H   0  0  0  0  0  0  0  0  0  0  0  0
   52.1279   80.4138   22.5519 H   0  0  0  0  0  0  0  0  0  0  0  0
   52.2082   77.7923   26.4261 H   0  0  0  0  0  0  0  0  0  0  0  0
   53.1542   77.1723   28.6511 H   0  0  0  0  0  0  0  0  0  0  0  0
   55.3011   78.1748   29.4231 H   0  0  0  0  0  0  0  0  0  0  0  0
   56.7580   81.0270   28.0160 H   0  0  0  0  0  0  0  0  0  0  0  0
   60.0123   79.8713   28.8558 H   0  0  0  0  0  0  0  0  0  0  0  0
   59.0838   81.2037   28.0027 H   0  0  0  0  0  0  0  0  0  0  0  0
   59.0941   83.0959   29.3001 H   0  0  0  0  0  0  0  0  0  0  0  0
   58.6020   84.2251   31.4643 H   0  0  0  0  0  0  0  0  0  0  0  0
   58.0139   82.8737   33.4756 H   0  0  0  0  0  0  0  0  0  0  0  0
   57.9288   80.3867   33.3235 H   0  0  0  0  0  0  0  0  0  0  0  0
   58.4211   79.2483   31.1629 H   0  0  0  0  0  0  0  0  0  0  0  0
   55.5593   80.4524   25.7620 H   0  0  0  0  0  0  0  0  0  0  0  0
  1  2  1  0
  2  3  1  0
  2  4  1  0
  4  5  2  0
  4  6  1  0
  6  7  1  0
  7  8  2  0
  8  9  1  0
  9 10  2  0
 10 11  1  0
 11 12  1  0
 12 13  2  0
 12 14  1  0
 14 15  1  0
 15 16  2  0
 16 17  1  0
 17 18  2  0
 18 19  1  0
 19 20  2  0
 10 21  1  0
 21  6  2  0
 20 15  1  0
  1 22  1  0
  1 23  1  0
  1 24  1  0
  3 25  1  0
  3 26  1  0
  3 27  1  0
  7 28  1  0
  8 29  1  0
  9 30  1  0
 11 31  1  0
 14 32  1  0
 14 33  1  0
 16 34  1  0
 17 35  1  0
 18 36  1  0
 19 37  1  0
 20 38  1  0
 21 39  1  0
M  END
>  <meeko>  (1) 
{"is_sidechain": false}

>  <smiles>  (1) 
CN(C)C(=O)c1cccc(NC(=O)Cc2ccccc2)c1

>  <vina_score>  (1) 
-8.096

>  <job_id>  (1) 
108c3b0a4fdd4811

$$$$
