
     RDKit          3D

 35 37  0  0  0  0  0  0  0  0999 V2000
   49.9620   81.3570   22.0250 N   0  0  0  0  0  0  0  0  0  0  0  0
   51.6160   81.6700   21.9800 S   0  0  0  0  0  0  0  0  0  0  0  0
   52.1090   80.9830   20.8080 O   0  0  0  0  0  0  0  0  0  0  0  0
   51.8100   83.0840   22.1920 O   0  0  0  0  0  0  0  0  0  0  0  0
   52.1800   80.8030   23.4210 C   0  0  0  0  0  0  0  0  0  0  0  0
   52.8570   79.5870   23.2820 C   0  0  0  0  0  0  0  0  0  0  0  0
   53.3000   78.9150   24.4220 C   0  0  0  0  0  0  0  0  0  0  0  0
   53.0850   79.4740   25.6870 C   0  0  0  0  0  0  0  0  0  0  0  0
   53.4660   78.8440   26.8500 O   0  0  0  0  0  0  0  0  0  0  0  0
   54.7440   79.0740   27.3030 C   0  0  0  0  0  0  0  0  0  0  0  0
   55.1620   78.3570   28.4200 C   0  0  0  0  0  0  0  0  0  0  0  0
   56.4410   78.5700   28.9450 C   0  0  0  0  0  0  0  0  0  0  0  0
   57.3290   79.5080   28.3860 C   0  0  0  0  0  0  0  0  0  0  0  0
   58.7070   79.6970   28.9960 C   0  0  0  0  0  0  0  0  0  0  0  0
   59.2740   81.0740   29.2400 C   0  0  0  0  0  0  0  0  0  0  0  0
   58.8730   80.2140   30.4040 C   0  0  0  0  0  0  0  0  0  0  0  0
   56.8640   80.2320   27.2720 C   0  0  0  0  0  0  0  0  0  0  0  0
   55.5860   80.0280   26.7380 C   0  0  0  0  0  0  0  0  0  0  0  0
   52.4000   80.6830   25.8210 C   0  0  0  0  0  0  0  0  0  0  0  0
   51.9540   81.3600   24.6840 C   0  0  0  0  0  0  0  0  0  0  0  0
   49.7250   80.3980   21.7730 H   0  0  0  0  0  0  0  0  0  0  0  0
   49.4810   82.0370   21.4330 H   0  0  0  0  0  0  0  0  0  0  0  0
   53.0386   79.1641   22.2829 H   0  0  0  0  0  0  0  0  0  0  0  0
   53.8167   77.9486   24.3267 H   0  0  0  0  0  0  0  0  0  0  0  0
   54.4884   77.6246   28.8889 H   0  0  0  0  0  0  0  0  0  0  0  0
   56.7623   77.9870   29.8208 H   0  0  0  0  0  0  0  0  0  0  0  0
   59.0402   78.8032   28.4481 H   0  0  0  0  0  0  0  0  0  0  0  0
   60.3381   81.2728   29.0444 H   0  0  0  0  0  0  0  0  0  0  0  0
   59.0213   82.0895   28.9009 H   0  0  0  0  0  0  0  0  0  0  0  0
   59.6436   79.7833   31.0603 H   0  0  0  0  0  0  0  0  0  0  0  0
   58.2055   80.3397   31.2692 H   0  0  0  0  0  0  0  0  0  0  0  0
   57.5238   80.9797   26.8076 H   0  0  0  0  0  0  0  0  0  0  0  0
   55.2481   80.6198   25.8745 H   0  0  0  0  0  0  0  0  0  0  0  0
   52.2119   81.1017   26.8207 H   0  0  0  0  0  0  0  0  0  0  0  0
   51.4299   82.3223   24.7807 H   0  0  0  0  0  0  0  0  0  0  0  0
  1  2  1  0
  2  3  2  0
  2  4  2  0
  2  5  1  0
  5  6  1  0
  6  7  2  0
  7  8  1  0
  8  9  1  0
  9 10  1  0
 10 11  1  0
 11 12  2  0
 12 13  1  0
 13 14  1  0
 14 15  1  0
 15 16  1  0
 13 17  2  0
 17 18  1  0
  8 19  2  0
 19 20  1  0
 20  5  2  0
 18 10  2  0
 16 14  1  0
  1 21  1  0
  1 22  1  0
  6 23  1  0
  7 24  1  0
 11 25  1  0
 12 26  1  0
 14 27  1  0
 15 28  1  0
 15 29  1  0
 16 30  1  0
 16 31  1  0
 17 32  1  0
 18 33  1  0
 19 34  1  0
 20 35  1  0
M  END
>  <meeko>  (1) 
{"is_sidechain": false}

>  <smiles>  (1) 
NS(=O)(=O)c1ccc(Oc2ccc(C3CC3)cc2)cc1

>  <vina_score>  (1) 
-8.085

>  <job_id>  (1) 
10c138f1100a357c

$$$$
