
     RDKit          3D

 39 40  0  0  0  0  0  0  0  0999 V2000
   61.5100   83.8850   32.6100 C   0  0  0  0  0  0  0  0  0  0  0  0
   61.0850   84.0310   31.1560 C   0  0  0  0  0  0  0  0  0  0  0  0
   59.9510   83.1700   30.8210 N   0  0  0  0  0  0  0  0  0  0  0  0
   58.6190   83.7860   30.8040 C   0  0  0  0  0  0  0  0  0  0  0  0
   57.9190   83.6880   32.1510 C   0  0  0  0  0  0  0  0  0  0  0  0
   60.2370   81.8900   30.3410 C   0  0  0  0  0  0  0  0  0  0  0  0
   61.3750   81.4610   30.1680 O   0  0  0  0  0  0  0  0  0  0  0  0
   59.1190   80.9850   30.0070 C   0  0  0  0  0  0  0  0  0  0  0  0
   58.7420   80.8370   28.6730 C   0  0  0  0  0  0  0  0  0  0  0  0
   57.6930   79.9740   28.3440 C   0  0  0  0  0  0  0  0  0  0  0  0
   57.0220   79.2390   29.3380 C   0  0  0  0  0  0  0  0  0  0  0  0
   55.9190   78.3280   28.9870 C   0  0  0  0  0  0  0  0  0  0  0  0
   54.8970   78.7330   28.1100 C   0  0  0  0  0  0  0  0  0  0  0  0
   53.8470   77.8710   27.7750 C   0  0  0  0  0  0  0  0  0  0  0  0
   53.8160   76.5920   28.3180 C   0  0  0  0  0  0  0  0  0  0  0  0
   52.8130   75.7180   28.0200 O   0  0  0  0  0  0  0  0  0  0  0  0
   54.8110   76.1650   29.1860 C   0  0  0  0  0  0  0  0  0  0  0  0
   55.8570   77.0290   29.5190 C   0  0  0  0  0  0  0  0  0  0  0  0
   57.4380   79.3870   30.6740 C   0  0  0  0  0  0  0  0  0  0  0  0
   58.4860   80.2490   31.0100 C   0  0  0  0  0  0  0  0  0  0  0  0
   60.6753   84.1717   33.2665 H   0  0  0  0  0  0  0  0  0  0  0  0
   61.7891   82.8394   32.8072 H   0  0  0  0  0  0  0  0  0  0  0  0
   62.3727   84.5383   32.8072 H   0  0  0  0  0  0  0  0  0  0  0  0
   60.8005   85.0778   30.9738 H   0  0  0  0  0  0  0  0  0  0  0  0
   61.9343   83.7304   30.5249 H   0  0  0  0  0  0  0  0  0  0  0  0
   58.7240   84.8478   30.5366 H   0  0  0  0  0  0  0  0  0  0  0  0
   58.0076   83.2441   30.0674 H   0  0  0  0  0  0  0  0  0  0  0  0
   58.6597   83.7917   32.9576 H   0  0  0  0  0  0  0  0  0  0  0  0
   57.1710   84.4902   32.2347 H   0  0  0  0  0  0  0  0  0  0  0  0
   57.4201   82.7112   32.2347 H   0  0  0  0  0  0  0  0  0  0  0  0
   59.2669   81.3960   27.8843 H   0  0  0  0  0  0  0  0  0  0  0  0
   57.3877   79.8680   27.2925 H   0  0  0  0  0  0  0  0  0  0  0  0
   54.9235   79.7451   27.6799 H   0  0  0  0  0  0  0  0  0  0  0  0
   53.0539   78.2024   27.0886 H   0  0  0  0  0  0  0  0  0  0  0  0
   52.4560   75.3620   28.8490 H   0  0  0  0  0  0  0  0  0  0  0  0
   54.7762   75.1506   29.6100 H   0  0  0  0  0  0  0  0  0  0  0  0
   56.6437   76.6874   30.2078 H   0  0  0  0  0  0  0  0  0  0  0  0
   56.9311   78.8160   31.4658 H   0  0  0  0  0  0  0  0  0  0  0  0
   58.8094   80.3465   32.0569 H   0  0  0  0  0  0  0  0  0  0  0  0
  1  2  1  0
  2  3  1  0
  3  4  1  0
  4  5  1  0
  3  6  1  0
  6  7  2  0
  6  8  1  0
  8  9  1  0
  9 10  2  0
 10 11  1  0
 11 12  1  0
 12 13  1  0
 13 14  2  0
 14 15  1  0
 15 16  1  0
 15 17  2  0
 17 18  1  0
 11 19  2  0
 19 20  1  0
 20  8  2  0
 18 12  2  0
  1 21  1  0
  1 22  1  0
  1 23  1  0
  2 24  1  0
  2 25  1  0
  4 26  1  0
  4 27  1  0
  5 28  1  0
  5 29  1  0
  5 30  1  0
  9 31  1  0
 10 32  1  0
 13 33  1  0
 14 34  1  0
 16 35  1  0
 17 36  1  0
 18 37  1  0
 19 38  1  0
 20 39  1  0
M  END
>  <meeko>  (1) 
{"is_sidechain": false}

>  <smiles>  (1) 
CCN(CC)C(=O)c1ccc(-c2ccc(O)cc2)cc1

>  <vina_score>  (1) 
-6.590

>  <job_id>  (1) 
10fe910184530d86

$$$$
