
     RDKit          3D

 40 43  0  0  0  0  0  0  0  0999 V2000
   62.8260   81.3640   32.8950 N   0  0  0  0  0  0  0  0  0  0  0  0
   61.5030   82.3960   32.8300 S   0  0  0  0  0  0  0  0  0  0  0  0
   60.9320   82.3920   34.1570 O   0  0  0  0  0  0  0  0  0  0  0  0
   61.9730   83.6030   32.1920 O   0  0  0  0  0  0  0  0  0  0  0  0
   60.4230   81.5340   31.7260 C   0  0  0  0  0  0  0  0  0  0  0  0
   60.5390   81.7330   30.3480 C   0  0  0  0  0  0  0  0  0  0  0  0
   59.6670   81.0690   29.4830 C   0  0  0  0  0  0  0  0  0  0  0  0
   58.6850   80.2090   29.9870 C   0  0  0  0  0  0  0  0  0  0  0  0
   57.8010   79.5570   29.1170 N   0  0  0  0  0  0  0  0  0  0  0  0
   56.7130   79.1060   29.6490 C   0  0  0  0  0  0  0  0  0  0  0  0
   55.6320   78.4290   28.9140 C   0  0  0  0  0  0  0  0  0  0  0  0
   55.1850   77.0690   29.3480 C   0  0  0  0  0  0  0  0  0  0  0  0
   55.6470   76.4230   30.2700 O   0  0  0  0  0  0  0  0  0  0  0  0
   54.1630   76.6980   28.5120 N   0  0  0  0  0  0  0  0  0  0  0  0
   53.9360   77.6640   27.5980 C   0  0  0  0  0  0  0  0  0  0  0  0
   53.0080   77.6960   26.6380 C   0  0  0  0  0  0  0  0  0  0  0  0
   52.9290   78.8510   25.7580 C   0  0  0  0  0  0  0  0  0  0  0  0
   53.7890   79.8900   25.8380 C   0  0  0  0  0  0  0  0  0  0  0  0
   53.7480   80.9820   24.9870 N   0  0  0  0  0  0  0  0  0  0  0  0
   54.6850   81.9820   25.0200 C   0  0  0  0  0  0  0  0  0  0  0  0
   55.6910   81.9750   25.9060 C   0  0  0  0  0  0  0  0  0  0  0  0
   55.7820   80.8810   26.8590 C   0  0  0  0  0  0  0  0  0  0  0  0
   54.8780   79.8750   26.8850 C   0  0  0  0  0  0  0  0  0  0  0  0
   54.8970   78.7400   27.8250 C   0  0  0  0  0  0  0  0  0  0  0  0
   58.5610   80.0410   31.3700 C   0  0  0  0  0  0  0  0  0  0  0  0
   59.4280   80.7000   32.2440 C   0  0  0  0  0  0  0  0  0  0  0  0
   62.5940   80.4770   32.4460 H   0  0  0  0  0  0  0  0  0  0  0  0
   63.6440   81.8260   32.4980 H   0  0  0  0  0  0  0  0  0  0  0  0
   61.3107   82.4071   29.9479 H   0  0  0  0  0  0  0  0  0  0  0  0
   59.7526   81.2231   28.3972 H   0  0  0  0  0  0  0  0  0  0  0  0
   56.5849   79.2380   30.7335 H   0  0  0  0  0  0  0  0  0  0  0  0
   53.6630   75.8260   28.6020 H   0  0  0  0  0  0  0  0  0  0  0  0
   52.3092   76.8556   26.5140 H   0  0  0  0  0  0  0  0  0  0  0  0
   52.1364   78.8800   24.9958 H   0  0  0  0  0  0  0  0  0  0  0  0
   53.0380   81.0060   24.2660 H   0  0  0  0  0  0  0  0  0  0  0  0
   54.6095   82.8113   24.3012 H   0  0  0  0  0  0  0  0  0  0  0  0
   56.4359   82.7843   25.9118 H   0  0  0  0  0  0  0  0  0  0  0  0
   56.6116   80.8709   27.5813 H   0  0  0  0  0  0  0  0  0  0  0  0
   57.7748   79.3850   31.7721 H   0  0  0  0  0  0  0  0  0  0  0  0
   59.3288   80.5640   33.3310 H   0  0  0  0  0  0  0  0  0  0  0  0
  1  2  1  0
  2  3  2  0
  2  4  2  0
  2  5  1  0
  5  6  1  0
  6  7  2  0
  7  8  1  0
  8  9  1  0
  9 10  2  3
 10 11  1  0
 11 12  1  0
 12 13  2  0
 12 14  1  0
 14 15  1  0
 15 16  2  0
 16 17  1  0
 17 18  2  0
 18 19  1  0
 19 20  1  0
 20 21  2  0
 21 22  1  0
 22 23  2  0
 23 24  1  0
  8 25  2  0
 25 26  1  0
 26  5  2  0
 24 11  2  0
 24 15  1  0
 23 18  1  0
  1 27  1  0
  1 28  1  0
  6 29  1  0
  7 30  1  0
 10 31  1  0
 14 32  1  0
 16 33  1  0
 17 34  1  0
 19 35  1  0
 20 36  1  0
 21 37  1  0
 22 38  1  0
 25 39  1  0
 26 40  1  0
M  END
>  <meeko>  (1) 
{"is_sidechain": false}

>  <smiles>  (1) 
NS(=O)(=O)c1ccc(N=Cc2c(=O)[nH]c3ccc4[nH]cccc4c23)cc1

>  <vina_score>  (1) 
-8.698

>  <job_id>  (1) 
111ee5543783b1a3

$$$$
