
     RDKit          3D

 51 54  0  0  0  0  0  0  0  0999 V2000
   58.5600   79.4350   28.1850 O   0  0  0  0  0  0  0  0  0  0  0  0
   58.2150   79.6210   29.3480 C   0  0  0  0  0  0  0  0  0  0  0  0
   57.0720   79.1500   29.9600 N   0  0  0  0  0  0  0  0  0  0  0  0
   56.0550   78.3570   29.3870 C   0  0  0  0  0  0  0  0  0  0  0  0
   55.8690   77.0620   29.8700 C   0  0  0  0  0  0  0  0  0  0  0  0
   54.9360   76.1950   29.4150 N   0  0  0  0  0  0  0  0  0  0  0  0
   54.1410   76.6380   28.4180 C   0  0  0  0  0  0  0  0  0  0  0  0
   54.2340   77.9040   27.8520 C   0  0  0  0  0  0  0  0  0  0  0  0
   53.3130   78.3320   26.7390 C   0  0  0  0  0  0  0  0  0  0  0  0
   53.6170   79.6910   26.0730 C   0  0  0  0  0  0  0  0  0  0  0  0
   52.9330   79.8600   24.7070 C   0  0  0  0  0  0  0  0  0  0  0  0
   53.3290   81.1800   24.0450 C   0  0  0  0  0  0  0  0  0  0  0  0
   53.0430   82.3720   24.9530 C   0  0  0  0  0  0  0  0  0  0  0  0
   53.7010   82.2100   26.3200 C   0  0  0  0  0  0  0  0  0  0  0  0
   53.3060   80.8900   26.9820 C   0  0  0  0  0  0  0  0  0  0  0  0
   55.2120   78.7730   28.3600 C   0  0  0  0  0  0  0  0  0  0  0  0
   59.0760   80.4380   30.2740 C   0  0  0  0  0  0  0  0  0  0  0  0
   58.9360   80.1800   31.6310 O   0  0  0  0  0  0  0  0  0  0  0  0
   59.6970   80.8960   32.5180 C   0  0  0  0  0  0  0  0  0  0  0  0
   59.5270   80.6070   33.8740 C   0  0  0  0  0  0  0  0  0  0  0  0
   60.2710   81.3000   34.8310 C   0  0  0  0  0  0  0  0  0  0  0  0
   61.1830   82.2790   34.4340 C   0  0  0  0  0  0  0  0  0  0  0  0
   61.3480   82.5640   33.0810 C   0  0  0  0  0  0  0  0  0  0  0  0
   62.2580   83.5350   32.7660 O   0  0  0  0  0  0  0  0  0  0  0  0
   60.6050   81.8720   32.1200 C   0  0  0  0  0  0  0  0  0  0  0  0
   60.7550   82.1470   30.6870 C   0  0  0  0  0  0  0  0  0  0  0  0
   61.5500   83.0040   30.3130 O   0  0  0  0  0  0  0  0  0  0  0  0
   59.9150   81.3530   29.7470 C   0  0  0  0  0  0  0  0  0  0  0  0
   60.0600   81.6160   28.3950 O   0  0  0  0  0  0  0  0  0  0  0  0
   56.9510   79.4010   30.9350 H   0  0  0  0  0  0  0  0  0  0  0  0
   56.5296   76.7206   30.6806 H   0  0  0  0  0  0  0  0  0  0  0  0
   53.3717   75.9545   28.0294 H   0  0  0  0  0  0  0  0  0  0  0  0
   53.3546   77.5603   25.9563 H   0  0  0  0  0  0  0  0  0  0  0  0
   52.3267   78.4547   27.2104 H   0  0  0  0  0  0  0  0  0  0  0  0
   54.7033   79.6782   25.9002 H   0  0  0  0  0  0  0  0  0  0  0  0
   53.2306   79.0277   24.0522 H   0  0  0  0  0  0  0  0  0  0  0  0
   51.8441   79.8636   24.8629 H   0  0  0  0  0  0  0  0  0  0  0  0
   54.4046   81.1558   23.8159 H   0  0  0  0  0  0  0  0  0  0  0  0
   52.7342   81.2964   23.1271 H   0  0  0  0  0  0  0  0  0  0  0  0
   53.4308   83.2844   24.4765 H   0  0  0  0  0  0  0  0  0  0  0  0
   51.9550   82.4371   25.1014 H   0  0  0  0  0  0  0  0  0  0  0  0
   54.7936   82.2338   26.1953 H   0  0  0  0  0  0  0  0  0  0  0  0
   53.3611   83.0336   26.9651 H   0  0  0  0  0  0  0  0  0  0  0  0
   53.8652   80.7802   27.9228 H   0  0  0  0  0  0  0  0  0  0  0  0
   52.2226   80.9086   27.1713 H   0  0  0  0  0  0  0  0  0  0  0  0
   55.3129   79.7868   27.9451 H   0  0  0  0  0  0  0  0  0  0  0  0
   58.8086   79.8352   34.1872 H   0  0  0  0  0  0  0  0  0  0  0  0
   60.1381   81.0740   35.8993 H   0  0  0  0  0  0  0  0  0  0  0  0
   61.7699   82.8241   35.1879 H   0  0  0  0  0  0  0  0  0  0  0  0
   61.8000   84.4070   32.7920 H   0  0  0  0  0  0  0  0  0  0  0  0
   59.2480   81.3250   27.9250 H   0  0  0  0  0  0  0  0  0  0  0  0
  1  2  2  0
  2  3  1  0
  3  4  1  0
  4  5  1  0
  5  6  2  0
  6  7  1  0
  7  8  2  0
  8  9  1  0
  9 10  1  0
 10 11  1  0
 11 12  1  0
 12 13  1  0
 13 14  1  0
 14 15  1  0
  8 16  1  0
  2 17  1  0
 17 18  1  0
 18 19  1  0
 19 20  2  0
 20 21  1  0
 21 22  2  0
 22 23  1  0
 23 24  1  0
 23 25  2  0
 25 26  1  0
 26 27  2  0
 26 28  1  0
 28 29  1  0
 16  4  2  0
 28 17  2  0
 15 10  1  0
 25 19  1  0
  3 30  1  0
  5 31  1  0
  7 32  1  0
  9 33  1  0
  9 34  1  0
 10 35  1  0
 11 36  1  0
 11 37  1  0
 12 38  1  0
 12 39  1  0
 13 40  1  0
 13 41  1  0
 14 42  1  0
 14 43  1  0
 15 44  1  0
 15 45  1  0
 16 46  1  0
 20 47  1  0
 21 48  1  0
 22 49  1  0
 24 50  1  0
 29 51  1  0
M  END
>  <meeko>  (1) 
{"is_sidechain": false}

>  <smiles>  (1) 
O=C(Nc1cncc(CC2CCCCC2)c1)c1oc2cccc(O)c2c(=O)c1O

>  <vina_score>  (1) 
-9.526

>  <job_id>  (1) 
119fe0c78e8a2bb3

$$$$
