
     RDKit          3D

 50 53  0  0  0  0  0  0  0  0999 V2000
   51.8040   80.6070   25.2570 N   0  0  0  0  0  0  0  0  0  0  0  0
   52.7910   80.3330   25.8040 C   0  0  0  0  0  0  0  0  0  0  0  0
   54.0340   80.0280   26.4500 C   0  0  0  0  0  0  0  0  0  0  0  0
   55.1290   80.8800   26.2370 C   0  0  0  0  0  0  0  0  0  0  0  0
   56.3590   80.6160   26.8450 C   0  0  0  0  0  0  0  0  0  0  0  0
   56.4990   79.4860   27.6600 C   0  0  0  0  0  0  0  0  0  0  0  0
   57.7770   79.2100   28.3500 C   0  0  0  0  0  0  0  0  0  0  0  0
   58.3090   78.1240   28.1380 O   0  0  0  0  0  0  0  0  0  0  0  0
   58.2970   80.1670   29.2210 N   0  0  0  0  0  0  0  0  0  0  0  0
   59.0720   81.3250   28.7700 C   0  0  0  0  0  0  0  0  0  0  0  0
   58.8680   82.5130   29.7090 C   0  0  0  0  0  0  0  0  0  0  0  0
   59.0350   82.1170   31.1420 C   0  0  0  0  0  0  0  0  0  0  0  0
   59.2840   83.0330   32.1370 C   0  0  0  0  0  0  0  0  0  0  0  0
   59.4120   82.7070   33.4360 N   0  0  0  0  0  0  0  0  0  0  0  0
   59.2820   81.4130   33.7540 C   0  0  0  0  0  0  0  0  0  0  0  0
   59.4140   80.9890   35.0630 N   0  0  0  0  0  0  0  0  0  0  0  0
   60.6290   80.2680   35.4150 C   0  0  0  0  0  0  0  0  0  0  0  0
   60.9850   80.6070   36.8770 C   0  0  0  0  0  0  0  0  0  0  0  0
   62.4800   80.4970   37.1910 C   0  0  0  0  0  0  0  0  0  0  0  0
   63.1760   79.4820   36.2960 C   0  0  0  0  0  0  0  0  0  0  0  0
   63.0600   79.8570   34.8170 C   0  0  0  0  0  0  0  0  0  0  0  0
   61.7870   80.6380   34.4810 C   0  0  0  0  0  0  0  0  0  0  0  0
   59.0200   80.4490   32.8630 N   0  0  0  0  0  0  0  0  0  0  0  0
   58.8890   80.8070   31.5650 C   0  0  0  0  0  0  0  0  0  0  0  0
   58.6130   79.6980   30.5740 C   0  0  0  0  0  0  0  0  0  0  0  0
   55.4080   78.6460   27.8980 C   0  0  0  0  0  0  0  0  0  0  0  0
   54.1800   78.9130   27.2870 C   0  0  0  0  0  0  0  0  0  0  0  0
   52.8730   77.8270   27.6020 Cl  0  0  0  0  0  0  0  0  0  0  0  0
   55.0181   81.7608   25.5875 H   0  0  0  0  0  0  0  0  0  0  0  0
   57.2121   81.2916   26.6844 H   0  0  0  0  0  0  0  0  0  0  0  0
   60.1393   81.0595   28.7509 H   0  0  0  0  0  0  0  0  0  0  0  0
   58.7300   81.6081   27.7636 H   0  0  0  0  0  0  0  0  0  0  0  0
   59.6060   83.2915   29.4654 H   0  0  0  0  0  0  0  0  0  0  0  0
   57.8427   82.8874   29.5726 H   0  0  0  0  0  0  0  0  0  0  0  0
   59.3841   84.0915   31.8550 H   0  0  0  0  0  0  0  0  0  0  0  0
   59.1790   81.7800   35.6520 H   0  0  0  0  0  0  0  0  0  0  0  0
   60.4575   79.1870   35.3055 H   0  0  0  0  0  0  0  0  0  0  0  0
   60.6626   81.6385   37.0821 H   0  0  0  0  0  0  0  0  0  0  0  0
   60.4696   79.8706   37.5111 H   0  0  0  0  0  0  0  0  0  0  0  0
   62.9477   81.4815   37.0425 H   0  0  0  0  0  0  0  0  0  0  0  0
   62.5850   80.1605   38.2330 H   0  0  0  0  0  0  0  0  0  0  0  0
   64.2404   79.4364   36.5696 H   0  0  0  0  0  0  0  0  0  0  0  0
   62.6891   78.5064   36.4413 H   0  0  0  0  0  0  0  0  0  0  0  0
   63.9288   80.4747   34.5456 H   0  0  0  0  0  0  0  0  0  0  0  0
   63.0213   78.9165   34.2478 H   0  0  0  0  0  0  0  0  0  0  0  0
   61.9932   81.7141   34.5785 H   0  0  0  0  0  0  0  0  0  0  0  0
   61.4913   80.3838   33.4524 H   0  0  0  0  0  0  0  0  0  0  0  0
   59.5044   79.0560   30.5173 H   0  0  0  0  0  0  0  0  0  0  0  0
   57.7246   79.1616   30.9386 H   0  0  0  0  0  0  0  0  0  0  0  0
   55.5155   77.7773   28.5642 H   0  0  0  0  0  0  0  0  0  0  0  0
  1  2  3  0
  2  3  1  0
  3  4  1  0
  4  5  2  0
  5  6  1  0
  6  7  1  0
  7  8  2  0
  7  9  1  0
  9 10  1  0
 10 11  1  0
 11 12  1  0
 12 13  2  0
 13 14  1  0
 14 15  2  0
 15 16  1  0
 16 17  1  0
 17 18  1  0
 18 19  1  0
 19 20  1  0
 20 21  1  0
 21 22  1  0
 15 23  1  0
 23 24  2  0
 24 25  1  0
  6 26  2  0
 26 27  1  0
 27 28  1  0
 27  3  2  0
 25  9  1  0
 24 12  1  0
 22 17  1  0
  4 29  1  0
  5 30  1  0
 10 31  1  0
 10 32  1  0
 11 33  1  0
 11 34  1  0
 13 35  1  0
 16 36  1  0
 17 37  1  0
 18 38  1  0
 18 39  1  0
 19 40  1  0
 19 41  1  0
 20 42  1  0
 20 43  1  0
 21 44  1  0
 21 45  1  0
 22 46  1  0
 22 47  1  0
 25 48  1  0
 25 49  1  0
 26 50  1  0
M  END
>  <meeko>  (1) 
{"is_sidechain": false}

>  <smiles>  (1) 
N#Cc1ccc(C(=O)N2CCc3cnc(NC4CCCCC4)nc3C2)cc1Cl

>  <vina_score>  (1) 
-8.679

>  <job_id>  (1) 
12fa29524bd98301

$$$$
