
     RDKit          3D

 49 51  0  0  0  0  0  0  0  0999 V2000
   52.1850   75.3610   26.5200 C   0  0  0  0  0  0  0  0  0  0  0  0
   52.8510   76.0210   27.7190 C   0  0  0  0  0  0  0  0  0  0  0  0
   52.8750   77.4820   27.6410 N   0  0  0  0  0  0  0  0  0  0  0  0
   53.9260   78.0310   26.7820 C   0  0  0  0  0  0  0  0  0  0  0  0
   55.0730   78.6490   27.5450 C   0  0  0  0  0  0  0  0  0  0  0  0
   55.4670   78.1380   28.7840 C   0  0  0  0  0  0  0  0  0  0  0  0
   56.5390   78.7090   29.4850 C   0  0  0  0  0  0  0  0  0  0  0  0
   57.2620   79.8020   28.9820 C   0  0  0  0  0  0  0  0  0  0  0  0
   58.3200   80.3700   29.6750 N   0  0  0  0  0  0  0  0  0  0  0  0
   58.6860   79.8790   31.0180 C   0  0  0  0  0  0  0  0  0  0  0  0
   59.3230   80.9810   31.8820 C   0  0  0  0  0  0  0  0  0  0  0  0
   60.4620   81.6320   31.2360 N   0  0  0  0  0  0  0  0  0  0  0  0
   61.3790   82.3010   32.0390 C   0  0  0  0  0  0  0  0  0  0  0  0
   61.2410   82.4310   33.2520 O   0  0  0  0  0  0  0  0  0  0  0  0
   62.5840   82.8930   31.4110 C   0  0  0  0  0  0  0  0  0  0  0  0
   62.5510   84.2370   31.0250 C   0  0  0  0  0  0  0  0  0  0  0  0
   63.6780   84.8190   30.4470 C   0  0  0  0  0  0  0  0  0  0  0  0
   64.8400   84.0650   30.2710 C   0  0  0  0  0  0  0  0  0  0  0  0
   64.8810   82.7310   30.6800 C   0  0  0  0  0  0  0  0  0  0  0  0
   63.7560   82.1440   31.2580 C   0  0  0  0  0  0  0  0  0  0  0  0
   60.4010   81.7320   29.7710 C   0  0  0  0  0  0  0  0  0  0  0  0
   58.9700   81.6070   29.2120 C   0  0  0  0  0  0  0  0  0  0  0  0
   56.8460   80.3000   27.7360 C   0  0  0  0  0  0  0  0  0  0  0  0
   55.7750   79.7390   27.0270 C   0  0  0  0  0  0  0  0  0  0  0  0
   51.4443   74.6270   26.8700 H   0  0  0  0  0  0  0  0  0  0  0  0
   51.6825   76.1275   25.9117 H   0  0  0  0  0  0  0  0  0  0  0  0
   52.9469   74.8516   25.9117 H   0  0  0  0  0  0  0  0  0  0  0  0
   52.3021   75.7295   28.6266 H   0  0  0  0  0  0  0  0  0  0  0  0
   53.8967   75.6802   27.7371 H   0  0  0  0  0  0  0  0  0  0  0  0
   53.0050   77.8540   28.5800 H   0  0  0  0  0  0  0  0  0  0  0  0
   54.3231   77.2180   26.1565 H   0  0  0  0  0  0  0  0  0  0  0  0
   53.4672   78.8336   26.1860 H   0  0  0  0  0  0  0  0  0  0  0  0
   54.9310   77.2791   29.2141 H   0  0  0  0  0  0  0  0  0  0  0  0
   56.8224   78.2868   30.4604 H   0  0  0  0  0  0  0  0  0  0  0  0
   57.7790   79.5131   31.5215 H   0  0  0  0  0  0  0  0  0  0  0  0
   59.4257   79.0742   30.8950 H   0  0  0  0  0  0  0  0  0  0  0  0
   58.5593   81.7433   32.0955 H   0  0  0  0  0  0  0  0  0  0  0  0
   59.6965   80.5027   32.7995 H   0  0  0  0  0  0  0  0  0  0  0  0
   61.6388   84.8326   31.1770 H   0  0  0  0  0  0  0  0  0  0  0  0
   63.6520   85.8719   30.1296 H   0  0  0  0  0  0  0  0  0  0  0  0
   65.7262   84.5239   29.8084 H   0  0  0  0  0  0  0  0  0  0  0  0
   65.8009   82.1428   30.5463 H   0  0  0  0  0  0  0  0  0  0  0  0
   63.7897   81.0966   31.5923 H   0  0  0  0  0  0  0  0  0  0  0  0
   60.8097   82.7079   29.4700 H   0  0  0  0  0  0  0  0  0  0  0  0
   60.9856   80.8948   29.3620 H   0  0  0  0  0  0  0  0  0  0  0  0
   58.3774   82.4705   29.5484 H   0  0  0  0  0  0  0  0  0  0  0  0
   59.0280   81.5782   28.1139 H   0  0  0  0  0  0  0  0  0  0  0  0
   57.3787   81.1591   27.3022 H   0  0  0  0  0  0  0  0  0  0  0  0
   55.4849   80.1613   26.0536 H   0  0  0  0  0  0  0  0  0  0  0  0
  1  2  1  0
  2  3  1  0
  3  4  1  0
  4  5  1  0
  5  6  1  0
  6  7  2  0
  7  8  1  0
  8  9  1  0
  9 10  1  0
 10 11  1  0
 11 12  1  0
 12 13  1  0
 13 14  2  0
 13 15  1  0
 15 16  2  0
 16 17  1  0
 17 18  2  0
 18 19  1  0
 19 20  2  0
 12 21  1  0
 21 22  1  0
  8 23  2  0
 23 24  1  0
 24  5  2  0
 22  9  1  0
 20 15  1  0
  1 25  1  0
  1 26  1  0
  1 27  1  0
  2 28  1  0
  2 29  1  0
  3 30  1  0
  4 31  1  0
  4 32  1  0
  6 33  1  0
  7 34  1  0
 10 35  1  0
 10 36  1  0
 11 37  1  0
 11 38  1  0
 16 39  1  0
 17 40  1  0
 18 41  1  0
 19 42  1  0
 20 43  1  0
 21 44  1  0
 21 45  1  0
 22 46  1  0
 22 47  1  0
 23 48  1  0
 24 49  1  0
M  END
>  <meeko>  (1) 
{"is_sidechain": false}

>  <smiles>  (1) 
CCNCc1ccc(N2CCN(C(=O)c3ccccc3)CC2)cc1

>  <vina_score>  (1) 
-7.086

>  <job_id>  (1) 
1309aec961743111

$$$$
