
     RDKit          3D

 51 54  0  0  0  0  0  0  0  0999 V2000
   51.4340   83.2840   21.4670 C   0  0  0  0  0  0  0  0  0  0  0  0
   51.4490   81.8970   21.9550 N   0  0  0  0  0  0  0  0  0  0  0  0
   51.0010   80.9800   20.8950 C   0  0  0  0  0  0  0  0  0  0  0  0
   63.0030   79.8570   35.4050 C   0  0  0  0  0  0  0  0  0  0  0  0
   62.4040   80.1940   34.2480 C   0  0  0  0  0  0  0  0  0  0  0  0
   60.9240   80.1330   33.9860 C   0  0  0  0  0  0  0  0  0  0  0  0
   60.5870   80.6750   32.7110 O   0  0  0  0  0  0  0  0  0  0  0  0
   59.1740   80.7710   32.5220 C   0  0  0  0  0  0  0  0  0  0  0  0
   58.8340   80.4890   31.0870 C   0  0  0  0  0  0  0  0  0  0  0  0
   59.6600   80.9110   30.0550 C   0  0  0  0  0  0  0  0  0  0  0  0
   59.4330   80.6490   28.7500 N   0  0  0  0  0  0  0  0  0  0  0  0
   58.3190   79.9330   28.4620 C   0  0  0  0  0  0  0  0  0  0  0  0
   57.4140   79.4400   29.4030 C   0  0  0  0  0  0  0  0  0  0  0  0
   57.6940   79.7500   30.7410 C   0  0  0  0  0  0  0  0  0  0  0  0
   56.2490   78.6250   29.0260 C   0  0  0  0  0  0  0  0  0  0  0  0
   55.9490   77.4320   29.6530 C   0  0  0  0  0  0  0  0  0  0  0  0
   54.8200   76.7910   29.2170 C   0  0  0  0  0  0  0  0  0  0  0  0
   54.0350   77.2620   28.2350 N   0  0  0  0  0  0  0  0  0  0  0  0
   54.3880   78.4270   27.6660 C   0  0  0  0  0  0  0  0  0  0  0  0
   55.4670   79.1270   28.0430 N   0  0  0  0  0  0  0  0  0  0  0  0
   53.5510   78.8310   26.6310 N   0  0  0  0  0  0  0  0  0  0  0  0
   53.3480   80.0360   25.9520 C   0  0  0  0  0  0  0  0  0  0  0  0
   53.3000   81.2210   26.7060 C   0  0  0  0  0  0  0  0  0  0  0  0
   53.0760   82.4600   26.1050 C   0  0  0  0  0  0  0  0  0  0  0  0
   52.8930   82.5380   24.7290 C   0  0  0  0  0  0  0  0  0  0  0  0
   52.9360   81.3800   23.9400 C   0  0  0  0  0  0  0  0  0  0  0  0
   53.1890   80.1420   24.5650 C   0  0  0  0  0  0  0  0  0  0  0  0
   52.7880   81.5130   22.4350 C   0  0  0  0  0  0  0  0  0  0  0  0
   51.4265   83.9740   22.3236 H   0  0  0  0  0  0  0  0  0  0  0  0
   52.3302   83.4675   20.8562 H   0  0  0  0  0  0  0  0  0  0  0  0
   50.5340   83.4481   20.8562 H   0  0  0  0  0  0  0  0  0  0  0  0
   50.0113   80.5003   20.9129 H   0  0  0  0  0  0  0  0  0  0  0  0
   50.9712   80.8872   19.7993 H   0  0  0  0  0  0  0  0  0  0  0  0
   63.6039   79.6848   36.3101 H   0  0  0  0  0  0  0  0  0  0  0  0
   63.0487   80.5422   33.4276 H   0  0  0  0  0  0  0  0  0  0  0  0
   60.5993   79.0827   34.0230 H   0  0  0  0  0  0  0  0  0  0  0  0
   60.4165   80.7324   34.7562 H   0  0  0  0  0  0  0  0  0  0  0  0
   58.6683   80.0384   33.1682 H   0  0  0  0  0  0  0  0  0  0  0  0
   58.8403   81.7863   32.7822 H   0  0  0  0  0  0  0  0  0  0  0  0
   60.5549   81.4950   30.3161 H   0  0  0  0  0  0  0  0  0  0  0  0
   58.1116   79.7238   27.4022 H   0  0  0  0  0  0  0  0  0  0  0  0
   57.0092   79.4084   31.5312 H   0  0  0  0  0  0  0  0  0  0  0  0
   56.5794   77.0208   30.4552 H   0  0  0  0  0  0  0  0  0  0  0  0
   54.5419   75.8408   29.6963 H   0  0  0  0  0  0  0  0  0  0  0  0
   53.1660   78.0020   26.2020 H   0  0  0  0  0  0  0  0  0  0  0  0
   53.4424   81.1705   27.7956 H   0  0  0  0  0  0  0  0  0  0  0  0
   53.0443   83.3727   26.7182 H   0  0  0  0  0  0  0  0  0  0  0  0
   52.7133   83.5148   24.2563 H   0  0  0  0  0  0  0  0  0  0  0  0
   53.2635   79.2353   23.9466 H   0  0  0  0  0  0  0  0  0  0  0  0
   53.5016   82.2764   22.0916 H   0  0  0  0  0  0  0  0  0  0  0  0
   52.9762   80.5094   22.0259 H   0  0  0  0  0  0  0  0  0  0  0  0
  1  2  1  0
  2  3  1  0
  3  4  1  0
  4  5  2  0
  5  6  1  0
  6  7  1  0
  7  8  1  0
  8  9  1  0
  9 10  1  0
 10 11  2  0
 11 12  1  0
 12 13  2  0
 13 14  1  0
 13 15  1  0
 15 16  1  0
 16 17  2  0
 17 18  1  0
 18 19  2  0
 19 20  1  0
 19 21  1  0
 21 22  1  0
 22 23  1  0
 23 24  2  0
 24 25  1  0
 25 26  2  0
 26 27  1  0
 26 28  1  0
 28  2  1  0
 14  9  2  0
 20 15  2  0
 27 22  2  0
  1 29  1  0
  1 30  1  0
  1 31  1  0
  3 32  1  0
  3 33  1  0
  4 34  1  0
  5 35  1  0
  6 36  1  0
  6 37  1  0
  8 38  1  0
  8 39  1  0
 10 40  1  0
 12 41  1  0
 14 42  1  0
 16 43  1  0
 17 44  1  0
 21 45  1  0
 23 46  1  0
 24 47  1  0
 25 48  1  0
 27 49  1  0
 28 50  1  0
 28 51  1  0
M  END
>  <meeko>  (1) 
{"is_sidechain": false}

>  <smiles>  (1) 
CN1C/C=C/COCc2cncc(c2)-c2ccnc(n2)Nc2cccc(c2)C1

>  <vina_score>  (1) 
-7.385

>  <job_id>  (1) 
130d97cd28e45040

$$$$
