
     RDKit          3D

 52 55  0  0  0  0  0  0  0  0999 V2000
   61.1860   82.2120   36.3040 N   0  0  0  0  0  0  0  0  0  0  0  0
   60.8540   80.7760   35.4880 S   0  0  0  0  0  0  0  0  0  0  0  0
   62.0860   80.0370   35.3600 O   0  0  0  0  0  0  0  0  0  0  0  0
   59.6790   80.2320   36.1280 O   0  0  0  0  0  0  0  0  0  0  0  0
   60.3940   81.3780   33.8850 C   0  0  0  0  0  0  0  0  0  0  0  0
   59.0490   81.3640   33.5120 C   0  0  0  0  0  0  0  0  0  0  0  0
   58.6820   81.8350   32.2480 C   0  0  0  0  0  0  0  0  0  0  0  0
   59.6390   82.3570   31.3630 C   0  0  0  0  0  0  0  0  0  0  0  0
   59.3120   82.7760   30.0500 N   0  0  0  0  0  0  0  0  0  0  0  0
   60.1000   82.2970   28.9990 N   0  0  0  0  0  0  0  0  0  0  0  0
   59.6320   81.0540   28.5070 N   0  0  0  0  0  0  0  0  0  0  0  0
   58.3260   81.1250   28.0200 N   0  0  0  0  0  0  0  0  0  0  0  0
   57.4080   80.1560   28.2800 C   0  0  0  0  0  0  0  0  0  0  0  0
   57.5510   79.2390   29.3030 C   0  0  0  0  0  0  0  0  0  0  0  0
   58.4610   79.0800   30.2550 O   0  0  0  0  0  0  0  0  0  0  0  0
   56.4940   78.3750   29.2400 N   0  0  0  0  0  0  0  0  0  0  0  0
   55.6290   78.7400   28.2360 C   0  0  0  0  0  0  0  0  0  0  0  0
   54.4200   78.1590   27.8390 C   0  0  0  0  0  0  0  0  0  0  0  0
   53.7330   78.7530   26.7740 C   0  0  0  0  0  0  0  0  0  0  0  0
   54.2200   79.8920   26.1180 C   0  0  0  0  0  0  0  0  0  0  0  0
   53.4720   80.5020   25.0050 C   0  0  0  0  0  0  0  0  0  0  0  0
   53.2690   81.8940   24.9490 C   0  0  0  0  0  0  0  0  0  0  0  0
   52.5600   82.4820   23.8960 C   0  0  0  0  0  0  0  0  0  0  0  0
   52.0430   81.6720   22.8790 C   0  0  0  0  0  0  0  0  0  0  0  0
   51.2970   82.2820   21.7710 N   0  0  0  0  0  0  0  0  0  0  0  0
   50.2550   81.7220   21.3990 O   0  0  0  0  0  0  0  0  0  0  0  0
   51.7540   83.3190   21.2710 O   0  0  0  0  0  0  0  0  0  0  0  0
   52.2320   80.2860   22.9110 C   0  0  0  0  0  0  0  0  0  0  0  0
   52.9420   79.7120   23.9690 C   0  0  0  0  0  0  0  0  0  0  0  0
   55.4420   80.4450   26.5480 C   0  0  0  0  0  0  0  0  0  0  0  0
   56.1690   79.8690   27.6170 C   0  0  0  0  0  0  0  0  0  0  0  0
   60.9890   82.3370   31.7540 C   0  0  0  0  0  0  0  0  0  0  0  0
   61.3690   81.8670   33.0150 C   0  0  0  0  0  0  0  0  0  0  0  0
   60.3390   82.7820   36.3270 H   0  0  0  0  0  0  0  0  0  0  0  0
   61.9790   82.7220   35.9170 H   0  0  0  0  0  0  0  0  0  0  0  0
   58.2845   80.9857   34.2066 H   0  0  0  0  0  0  0  0  0  0  0  0
   57.6262   81.7960   31.9417 H   0  0  0  0  0  0  0  0  0  0  0  0
   58.3110   82.6750   29.8760 H   0  0  0  0  0  0  0  0  0  0  0  0
   61.0880   82.2240   29.2720 H   0  0  0  0  0  0  0  0  0  0  0  0
   60.2730   80.7020   27.7890 H   0  0  0  0  0  0  0  0  0  0  0  0
   58.0140   82.0750   27.8340 H   0  0  0  0  0  0  0  0  0  0  0  0
   58.0240   79.2790   31.1000 H   0  0  0  0  0  0  0  0  0  0  0  0
   56.3590   77.6000   29.8730 H   0  0  0  0  0  0  0  0  0  0  0  0
   54.0233   77.2669   28.3458 H   0  0  0  0  0  0  0  0  0  0  0  0
   52.7815   78.3124   26.4415 H   0  0  0  0  0  0  0  0  0  0  0  0
   53.6755   82.5312   25.7482 H   0  0  0  0  0  0  0  0  0  0  0  0
   52.4103   83.5714   23.8679 H   0  0  0  0  0  0  0  0  0  0  0  0
   51.8246   79.6527   22.1091 H   0  0  0  0  0  0  0  0  0  0  0  0
   53.0891   78.6221   23.9920 H   0  0  0  0  0  0  0  0  0  0  0  0
   55.8378   81.3394   26.0446 H   0  0  0  0  0  0  0  0  0  0  0  0
   61.7595   82.6971   31.0563 H   0  0  0  0  0  0  0  0  0  0  0  0
   62.4263   81.8827   33.3181 H   0  0  0  0  0  0  0  0  0  0  0  0
  1  2  1  0
  2  3  2  0
  2  4  2  0
  2  5  1  0
  5  6  1  0
  6  7  2  0
  7  8  1  0
  8  9  1  0
  9 10  1  0
 10 11  1  0
 11 12  1  0
 12 13  1  0
 13 14  2  0
 14 15  1  0
 14 16  1  0
 16 17  1  0
 17 18  2  0
 18 19  1  0
 19 20  2  0
 20 21  1  0
 21 22  1  0
 22 23  2  0
 23 24  1  0
 24 25  1  0
 25 26  2  0
 25 27  1  0
 24 28  2  0
 28 29  1  0
 20 30  1  0
 30 31  2  0
  8 32  2  0
 32 33  1  0
 33  5  2  0
 31 13  1  0
 31 17  1  0
 29 21  2  0
  1 34  1  0
  1 35  1  0
  6 36  1  0
  7 37  1  0
  9 38  1  0
 10 39  1  0
 11 40  1  0
 12 41  1  0
 15 42  1  0
 16 43  1  0
 18 44  1  0
 19 45  1  0
 22 46  1  0
 23 47  1  0
 28 48  1  0
 29 49  1  0
 30 50  1  0
 32 51  1  0
 33 52  1  0
M  CHG  2  25   1  27  -1
M  END
>  <meeko>  (1) 
{"is_sidechain": false}

>  <smiles>  (1) 
NS(=O)(=O)c1ccc(NNNNc2c(O)[nH]c3ccc(-c4ccc([N+](=O)[O-])cc4)cc23)cc1

>  <vina_score>  (1) 
-9.697

>  <job_id>  (1) 
13d1483f9b7c1e7a

$$$$
