
     RDKit          3D

 46 48  0  0  0  0  0  0  0  0999 V2000
   58.8910   79.1250   28.4370 O   0  0  0  0  0  0  0  0  0  0  0  0
   57.9400   79.4180   29.1510 C   0  0  0  0  0  0  0  0  0  0  0  0
   57.9520   80.2480   30.2570 N   0  0  0  0  0  0  0  0  0  0  0  0
   59.0700   80.8780   30.8440 C   0  0  0  0  0  0  0  0  0  0  0  0
   59.9160   81.7570   30.1670 C   0  0  0  0  0  0  0  0  0  0  0  0
   61.0090   82.3340   30.8220 C   0  0  0  0  0  0  0  0  0  0  0  0
   61.2660   82.0370   32.1580 C   0  0  0  0  0  0  0  0  0  0  0  0
   60.4300   81.1590   32.8410 C   0  0  0  0  0  0  0  0  0  0  0  0
   59.3380   80.5820   32.1880 C   0  0  0  0  0  0  0  0  0  0  0  0
   56.6020   78.8690   28.8050 C   0  0  0  0  0  0  0  0  0  0  0  0
   56.0630   77.7750   29.4880 C   0  0  0  0  0  0  0  0  0  0  0  0
   54.8050   77.3010   29.1310 C   0  0  0  0  0  0  0  0  0  0  0  0
   54.0910   77.9090   28.0910 C   0  0  0  0  0  0  0  0  0  0  0  0
   54.6170   78.9940   27.3730 C   0  0  0  0  0  0  0  0  0  0  0  0
   53.9370   79.6270   26.3160 N   0  0  0  0  0  0  0  0  0  0  0  0
   53.5860   81.0320   26.6150 C   0  0  0  0  0  0  0  0  0  0  0  0
   53.8520   82.0030   25.4640 C   0  0  0  0  0  0  0  0  0  0  0  0
   52.7340   82.1010   24.4170 C   0  0  0  0  0  0  0  0  0  0  0  0
   52.8270   81.0800   23.2680 C   0  0  0  0  0  0  0  0  0  0  0  0
   52.2530   79.7580   23.5070 N   0  0  0  0  0  0  0  0  0  0  0  0
   53.1410   78.7510   24.0880 C   0  0  0  0  0  0  0  0  0  0  0  0
   54.3170   79.2710   24.9400 C   0  0  0  0  0  0  0  0  0  0  0  0
   55.8870   79.4590   27.7540 C   0  0  0  0  0  0  0  0  0  0  0  0
   57.0540   80.4910   30.6560 H   0  0  0  0  0  0  0  0  0  0  0  0
   59.7222   81.9978   29.1113 H   0  0  0  0  0  0  0  0  0  0  0  0
   61.6692   83.0262   30.2788 H   0  0  0  0  0  0  0  0  0  0  0  0
   62.1253   82.4940   32.6707 H   0  0  0  0  0  0  0  0  0  0  0  0
   60.6291   80.9190   33.8959 H   0  0  0  0  0  0  0  0  0  0  0  0
   58.6817   79.8883   32.7339 H   0  0  0  0  0  0  0  0  0  0  0  0
   56.6281   77.2937   30.2998 H   0  0  0  0  0  0  0  0  0  0  0  0
   54.3693   76.4453   29.6676 H   0  0  0  0  0  0  0  0  0  0  0  0
   53.0931   77.5266   27.8304 H   0  0  0  0  0  0  0  0  0  0  0  0
   52.5150   81.0749   26.8620 H   0  0  0  0  0  0  0  0  0  0  0  0
   54.2289   81.3477   27.4499 H   0  0  0  0  0  0  0  0  0  0  0  0
   54.0049   83.0044   25.8927 H   0  0  0  0  0  0  0  0  0  0  0  0
   54.7324   81.6117   24.9332 H   0  0  0  0  0  0  0  0  0  0  0  0
   51.7724   81.9511   24.9296 H   0  0  0  0  0  0  0  0  0  0  0  0
   52.8323   83.0941   23.9544 H   0  0  0  0  0  0  0  0  0  0  0  0
   52.3125   81.5126   22.3973 H   0  0  0  0  0  0  0  0  0  0  0  0
   53.9038   80.9030   23.1298 H   0  0  0  0  0  0  0  0  0  0  0  0
   51.4260   79.8660   24.0950 H   0  0  0  0  0  0  0  0  0  0  0  0
   52.5298   78.0973   24.7277 H   0  0  0  0  0  0  0  0  0  0  0  0
   53.6079   78.2479   23.2284 H   0  0  0  0  0  0  0  0  0  0  0  0
   55.0875   78.4872   24.9840 H   0  0  0  0  0  0  0  0  0  0  0  0
   54.6815   80.1904   24.4586 H   0  0  0  0  0  0  0  0  0  0  0  0
   56.3314   80.3078   27.2135 H   0  0  0  0  0  0  0  0  0  0  0  0
  1  2  2  0
  2  3  1  0
  3  4  1  0
  4  5  2  0
  5  6  1  0
  6  7  2  0
  7  8  1  0
  8  9  2  0
  2 10  1  0
 10 11  1  0
 11 12  2  0
 12 13  1  0
 13 14  2  0
 14 15  1  0
 15 16  1  0
 16 17  1  0
 17 18  1  0
 18 19  1  0
 19 20  1  0
 20 21  1  0
 21 22  1  0
 14 23  1  0
  9  4  1  0
 23 10  2  0
 22 15  1  0
  3 24  1  0
  5 25  1  0
  6 26  1  0
  7 27  1  0
  8 28  1  0
  9 29  1  0
 11 30  1  0
 12 31  1  0
 13 32  1  0
 16 33  1  0
 16 34  1  0
 17 35  1  0
 17 36  1  0
 18 37  1  0
 18 38  1  0
 19 39  1  0
 19 40  1  0
 20 41  1  0
 21 42  1  0
 21 43  1  0
 22 44  1  0
 22 45  1  0
 23 46  1  0
M  END
>  <meeko>  (1) 
{"is_sidechain": false}

>  <smiles>  (1) 
O=C(Nc1ccccc1)c1cccc(N2CCCCNCC2)c1

>  <vina_score>  (1) 
-6.264

>  <job_id>  (1) 
13dbabc3c48db87c

$$$$
