
     RDKit          3D

 66 71  0  0  0  0  0  0  0  0999 V2000
   58.1450   84.2570   32.0940 C   0  0  0  0  0  0  0  0  0  0  0  0
   59.6330   84.2440   31.9950 C   0  0  0  0  0  0  0  0  0  0  0  0
   60.3780   85.3770   32.2270 C   0  0  0  0  0  0  0  0  0  0  0  0
   61.7210   85.4260   32.1510 N   0  0  0  0  0  0  0  0  0  0  0  0
   62.3660   84.3000   31.8220 C   0  0  0  0  0  0  0  0  0  0  0  0
   63.7520   84.2390   31.7180 N   0  0  0  0  0  0  0  0  0  0  0  0
   64.6660   84.5030   30.6930 C   0  0  0  0  0  0  0  0  0  0  0  0
   65.9440   83.9420   30.6210 C   0  0  0  0  0  0  0  0  0  0  0  0
   66.8100   84.2400   29.5610 C   0  0  0  0  0  0  0  0  0  0  0  0
   66.4070   85.1070   28.5500 C   0  0  0  0  0  0  0  0  0  0  0  0
   65.1390   85.6740   28.5980 C   0  0  0  0  0  0  0  0  0  0  0  0
   64.2790   85.3730   29.6590 C   0  0  0  0  0  0  0  0  0  0  0  0
   61.7330   83.1440   31.5710 N   0  0  0  0  0  0  0  0  0  0  0  0
   60.3870   83.1410   31.6450 C   0  0  0  0  0  0  0  0  0  0  0  0
   59.8050   81.8440   31.3310 C   0  0  0  0  0  0  0  0  0  0  0  0
   59.5100   81.2370   30.1170 C   0  0  0  0  0  0  0  0  0  0  0  0
   59.7500   81.7760   28.7540 C   0  0  0  0  0  0  0  0  0  0  0  0
   58.9320   79.9740   30.4590 C   0  0  0  0  0  0  0  0  0  0  0  0
   58.5020   79.1150   29.5160 N   0  0  0  0  0  0  0  0  0  0  0  0
   57.2250   78.8600   29.0220 C   0  0  0  0  0  0  0  0  0  0  0  0
   56.6160   77.7840   29.5620 N   0  0  0  0  0  0  0  0  0  0  0  0
   55.3700   77.4890   29.1380 C   0  0  0  0  0  0  0  0  0  0  0  0
   54.7110   78.2100   28.1780 C   0  0  0  0  0  0  0  0  0  0  0  0
   55.4260   79.2930   27.6930 C   0  0  0  0  0  0  0  0  0  0  0  0
   56.6590   79.6280   28.0840 N   0  0  0  0  0  0  0  0  0  0  0  0
   54.7980   80.1030   26.6710 C   0  0  0  0  0  0  0  0  0  0  0  0
   53.6300   79.7500   26.0220 C   0  0  0  0  0  0  0  0  0  0  0  0
   53.3510   80.8210   25.1270 C   0  0  0  0  0  0  0  0  0  0  0  0
   52.2370   80.9570   24.1740 C   0  0  0  0  0  0  0  0  0  0  0  0
   52.6010   81.1040   22.8570 N   0  0  0  0  0  0  0  0  0  0  0  0
   51.0480   80.9820   24.4770 O   0  0  0  0  0  0  0  0  0  0  0  0
   54.2940   81.7770   25.2380 N   0  0  0  0  0  0  0  0  0  0  0  0
   55.1600   81.3170   26.1680 N   0  0  0  0  0  0  0  0  0  0  0  0
   56.3100   82.1150   26.5220 C   0  0  0  0  0  0  0  0  0  0  0  0
   52.9400   78.4620   26.3240 C   0  0  0  0  0  0  0  0  0  0  0  0
   53.2900   77.9450   27.7460 C   0  0  0  0  0  0  0  0  0  0  0  0
   58.8990   79.8110   31.7820 N   0  0  0  0  0  0  0  0  0  0  0  0
   59.4610   80.9200   32.2840 N   0  0  0  0  0  0  0  0  0  0  0  0
   59.6220   81.0360   33.7150 C   0  0  0  0  0  0  0  0  0  0  0  0
   57.8480   84.2596   33.1531 H   0  0  0  0  0  0  0  0  0  0  0  0
   57.7526   85.1586   31.6009 H   0  0  0  0  0  0  0  0  0  0  0  0
   57.7369   83.3624   31.6009 H   0  0  0  0  0  0  0  0  0  0  0  0
   59.8426   86.3009   32.4912 H   0  0  0  0  0  0  0  0  0  0  0  0
   64.1280   83.8770   32.5820 H   0  0  0  0  0  0  0  0  0  0  0  0
   66.2762   83.2533   31.4118 H   0  0  0  0  0  0  0  0  0  0  0  0
   67.8119   83.7871   29.5278 H   0  0  0  0  0  0  0  0  0  0  0  0
   67.0875   85.3421   27.7183 H   0  0  0  0  0  0  0  0  0  0  0  0
   64.8120   86.3591   27.8019 H   0  0  0  0  0  0  0  0  0  0  0  0
   63.2775   85.8272   29.6849 H   0  0  0  0  0  0  0  0  0  0  0  0
   60.1964   82.7785   28.8295 H   0  0  0  0  0  0  0  0  0  0  0  0
   60.4362   81.1090   28.2115 H   0  0  0  0  0  0  0  0  0  0  0  0
   58.7952   81.8397   28.2115 H   0  0  0  0  0  0  0  0  0  0  0  0
   59.1350   78.4800   29.0550 H   0  0  0  0  0  0  0  0  0  0  0  0
   54.8570   76.6253   29.5861 H   0  0  0  0  0  0  0  0  0  0  0  0
   53.5160   81.4730   22.6470 H   0  0  0  0  0  0  0  0  0  0  0  0
   51.8400   81.3930   22.2570 H   0  0  0  0  0  0  0  0  0  0  0  0
   56.3931   82.1727   27.6173 H   0  0  0  0  0  0  0  0  0  0  0  0
   57.2185   81.6522   26.1092 H   0  0  0  0  0  0  0  0  0  0  0  0
   56.1945   83.1280   26.1092 H   0  0  0  0  0  0  0  0  0  0  0  0
   51.8528   78.6155   26.2576 H   0  0  0  0  0  0  0  0  0  0  0  0
   53.2765   77.7120   25.5930 H   0  0  0  0  0  0  0  0  0  0  0  0
   52.6160   78.4342   28.4646 H   0  0  0  0  0  0  0  0  0  0  0  0
   53.1710   76.8518   27.7185 H   0  0  0  0  0  0  0  0  0  0  0  0
   58.8294   80.4649   34.2206 H   0  0  0  0  0  0  0  0  0  0  0  0
   60.6046   80.6370   34.0070 H   0  0  0  0  0  0  0  0  0  0  0  0
   59.5546   82.0944   34.0070 H   0  0  0  0  0  0  0  0  0  0  0  0
  1  2  1  0
  2  3  2  0
  3  4  1  0
  4  5  2  0
  5  6  1  0
  6  7  1  0
  7  8  2  0
  8  9  1  0
  9 10  2  0
 10 11  1  0
 11 12  2  0
  5 13  1  0
 13 14  2  0
 14 15  1  0
 15 16  2  0
 16 17  1  0
 16 18  1  0
 18 19  1  0
 19 20  1  0
 20 21  2  0
 21 22  1  0
 22 23  2  0
 23 24  1  0
 24 25  2  0
 24 26  1  0
 26 27  2  0
 27 28  1  0
 28 29  1  0
 29 30  1  0
 29 31  2  0
 28 32  2  0
 32 33  1  0
 33 34  1  0
 27 35  1  0
 35 36  1  0
 18 37  2  0
 37 38  1  0
 38 39  1  0
 14  2  1  0
 38 15  1  0
 12  7  1  0
 25 20  1  0
 33 26  1  0
 36 23  1  0
  1 40  1  0
  1 41  1  0
  1 42  1  0
  3 43  1  0
  6 44  1  0
  8 45  1  0
  9 46  1  0
 10 47  1  0
 11 48  1  0
 12 49  1  0
 17 50  1  0
 17 51  1  0
 17 52  1  0
 19 53  1  0
 22 54  1  0
 30 55  1  0
 30 56  1  0
 34 57  1  0
 34 58  1  0
 34 59  1  0
 35 60  1  0
 35 61  1  0
 36 62  1  0
 36 63  1  0
 39 64  1  0
 39 65  1  0
 39 66  1  0
M  END
>  <meeko>  (1) 
{"is_sidechain": false}

>  <smiles>  (1) 
Cc1cnc(Nc2ccccc2)nc1-c1c(C)c(Nc2ncc3c(n2)-c2c(c(C(N)=O)nn2C)CC3)nn1C

>  <vina_score>  (1) 
-9.675

>  <job_id>  (1) 
1407d159535d9c45

$$$$
