
     RDKit          3D

 67 70  0  0  0  0  0  0  0  0999 V2000
   60.8090   84.4620   34.7730 C   0  0  0  0  0  0  0  0  0  0  0  0
   60.4220   84.6740   33.2980 C   0  0  0  0  0  0  0  0  0  0  0  0
   59.4570   85.9050   33.1910 C   0  0  0  0  0  0  0  0  0  0  0  0
   59.5760   86.8290   32.0470 N   0  0  0  0  0  0  0  0  0  0  0  0
   60.9070   86.8250   31.4490 C   0  0  0  0  0  0  0  0  0  0  0  0
   58.5520   86.6280   31.0270 C   0  0  0  0  0  0  0  0  0  0  0  0
   59.9100   83.4500   32.6550 N   0  0  0  0  0  0  0  0  0  0  0  0
   59.5830   82.3280   33.5470 C   0  0  0  0  0  0  0  0  0  0  0  0
   59.6570   80.9150   32.9370 C   0  0  0  0  0  0  0  0  0  0  0  0
   59.3860   80.9160   31.4590 C   0  0  0  0  0  0  0  0  0  0  0  0
   58.7360   79.8570   30.9170 N   0  0  0  0  0  0  0  0  0  0  0  0
   58.5370   79.8420   29.5780 C   0  0  0  0  0  0  0  0  0  0  0  0
   57.8550   78.7330   29.1110 N   0  0  0  0  0  0  0  0  0  0  0  0
   56.5420   78.4570   28.7840 C   0  0  0  0  0  0  0  0  0  0  0  0
   55.7700   77.6780   29.5590 N   0  0  0  0  0  0  0  0  0  0  0  0
   54.5060   77.4640   29.1470 C   0  0  0  0  0  0  0  0  0  0  0  0
   53.9890   78.0040   28.0000 C   0  0  0  0  0  0  0  0  0  0  0  0
   52.7190   77.7750   27.6380 F   0  0  0  0  0  0  0  0  0  0  0  0
   54.8320   78.8090   27.2530 C   0  0  0  0  0  0  0  0  0  0  0  0
   54.3560   79.3500   26.0400 N   0  0  0  0  0  0  0  0  0  0  0  0
   53.8760   80.7360   26.0730 C   0  0  2  0  0  0  0  0  0  0  0  0
   52.7460   80.8930   25.0320 C   0  0  0  0  0  0  0  0  0  0  0  0
   52.6870   82.2760   24.3760 C   0  0  0  0  0  0  0  0  0  0  0  0
   53.1390   83.4110   25.2980 C   0  0  1  0  0  0  0  0  0  0  0  0
   52.2030   83.5890   26.4090 N   0  0  0  0  0  0  0  0  0  0  0  0
   54.5660   83.1700   25.8220 C   0  0  0  0  0  0  0  0  0  0  0  0
   55.0190   81.7080   25.7700 C   0  0  0  0  0  0  0  0  0  0  0  0
   56.1030   79.0260   27.6450 N   0  0  0  0  0  0  0  0  0  0  0  0
   59.0020   80.8730   28.7700 C   0  0  0  0  0  0  0  0  0  0  0  0
   59.6850   81.9510   29.3390 C   0  0  0  0  0  0  0  0  0  0  0  0
   59.8780   81.9800   30.7130 C   0  0  0  0  0  0  0  0  0  0  0  0
   60.6190   83.0720   31.4330 C   0  0  0  0  0  0  0  0  0  0  0  0
   60.0298   84.8889   35.4215 H   0  0  0  0  0  0  0  0  0  0  0  0
   60.9053   83.3851   34.9757 H   0  0  0  0  0  0  0  0  0  0  0  0
   61.7684   84.9605   34.9757 H   0  0  0  0  0  0  0  0  0  0  0  0
   61.3284   84.9068   32.7199 H   0  0  0  0  0  0  0  0  0  0  0  0
   58.4319   85.5064   33.1740 H   0  0  0  0  0  0  0  0  0  0  0  0
   59.7383   86.5271   34.0535 H   0  0  0  0  0  0  0  0  0  0  0  0
   61.6665   86.8227   32.2447 H   0  0  0  0  0  0  0  0  0  0  0  0
   61.0262   85.9265   30.8257 H   0  0  0  0  0  0  0  0  0  0  0  0
   61.0317   87.7228   30.8257 H   0  0  0  0  0  0  0  0  0  0  0  0
   57.5834   86.4379   31.5124 H   0  0  0  0  0  0  0  0  0  0  0  0
   58.4774   87.5286   30.3999 H   0  0  0  0  0  0  0  0  0  0  0  0
   58.8234   85.7660   30.3999 H   0  0  0  0  0  0  0  0  0  0  0  0
   60.2823   82.3619   34.3954 H   0  0  0  0  0  0  0  0  0  0  0  0
   58.5263   82.4715   33.8168 H   0  0  0  0  0  0  0  0  0  0  0  0
   60.6634   80.5068   33.1117 H   0  0  0  0  0  0  0  0  0  0  0  0
   58.8838   80.2995   33.4201 H   0  0  0  0  0  0  0  0  0  0  0  0
   58.4540   77.9290   29.0080 H   0  0  0  0  0  0  0  0  0  0  0  0
   53.8568   76.8237   29.7623 H   0  0  0  0  0  0  0  0  0  0  0  0
   53.6800   78.6980   25.6440 H   0  0  0  0  0  0  0  0  0  0  0  0
   53.4919   80.9695   27.0770 H   0  0  0  0  0  0  0  0  0  0  0  0
   52.8972   80.1424   24.2423 H   0  0  0  0  0  0  0  0  0  0  0  0
   51.7970   80.7573   25.5714 H   0  0  0  0  0  0  0  0  0  0  0  0
   53.3377   82.2683   23.4891 H   0  0  0  0  0  0  0  0  0  0  0  0
   51.6343   82.4674   24.1207 H   0  0  0  0  0  0  0  0  0  0  0  0
   53.1482   84.3374   24.7049 H   0  0  0  0  0  0  0  0  0  0  0  0
   51.2400   83.4410   26.1180 H   0  0  0  0  0  0  0  0  0  0  0  0
   52.2560   84.5440   26.7610 H   0  0  0  0  0  0  0  0  0  0  0  0
   55.2614   83.7677   25.2145 H   0  0  0  0  0  0  0  0  0  0  0  0
   54.5650   83.4615   26.8827 H   0  0  0  0  0  0  0  0  0  0  0  0
   55.4086   81.4937   24.7639 H   0  0  0  0  0  0  0  0  0  0  0  0
   55.7936   81.5675   26.5383 H   0  0  0  0  0  0  0  0  0  0  0  0
   58.8325   80.8403   27.6836 H   0  0  0  0  0  0  0  0  0  0  0  0
   60.0649   82.7664   28.7059 H   0  0  0  0  0  0  0  0  0  0  0  0
   61.6262   82.7152   31.6941 H   0  0  0  0  0  0  0  0  0  0  0  0
   60.6878   83.9504   30.7745 H   0  0  0  0  0  0  0  0  0  0  0  0
  1  2  1  0
  2  3  1  0
  3  4  1  0
  4  5  1  0
  4  6  1  0
  2  7  1  0
  7  8  1  0
  8  9  1  0
  9 10  1  0
 10 11  1  0
 11 12  2  0
 12 13  1  0
 13 14  1  0
 14 15  2  0
 15 16  1  0
 16 17  2  0
 17 18  1  0
 17 19  1  0
 19 20  1  0
 20 21  1  0
 21 22  1  0
 22 23  1  0
 23 24  1  0
 24 25  1  0
 24 26  1  0
 26 27  1  0
 19 28  2  0
 12 29  1  0
 29 30  2  0
 30 31  1  0
 31 32  1  0
 32  7  1  0
 31 10  2  0
 28 14  1  0
 27 21  1  0
  1 33  1  0
  1 34  1  0
  1 35  1  0
  2 36  1  0
  3 37  1  0
  3 38  1  0
  5 39  1  0
  5 40  1  0
  5 41  1  0
  6 42  1  0
  6 43  1  0
  6 44  1  0
  8 45  1  0
  8 46  1  0
  9 47  1  0
  9 48  1  0
 13 49  1  0
 16 50  1  0
 20 51  1  0
 21 52  1  6
 22 53  1  0
 22 54  1  0
 23 55  1  0
 23 56  1  0
 24 57  1  1
 25 58  1  0
 25 59  1  0
 26 60  1  0
 26 61  1  0
 27 62  1  0
 27 63  1  0
 29 64  1  0
 30 65  1  0
 32 66  1  0
 32 67  1  0
M  END
>  <meeko>  (1) 
{"is_sidechain": false}

>  <smiles>  (1) 
CC(CN(C)C)N1CCc2nc(Nc3ncc(F)c(N[C@H]4CC[C@H](N)CC4)n3)ccc2C1

>  <vina_score>  (1) 
-8.144

>  <job_id>  (1) 
143777fab2539bc3

$$$$
