
     RDKit          3D

 51 53  0  0  0  0  0  0  0  0999 V2000
   60.0120   84.3090   31.3950 C   0  0  0  0  0  0  0  0  0  0  0  0
   59.6690   83.1090   31.8930 C   0  0  0  0  0  0  0  0  0  0  0  0
   59.6970   82.8330   33.3700 C   0  0  0  0  0  0  0  0  0  0  0  0
   59.2590   82.0070   30.9940 C   0  0  0  0  0  0  0  0  0  0  0  0
   58.5600   80.8970   31.4890 C   0  0  0  0  0  0  0  0  0  0  0  0
   58.1850   79.8470   30.6450 C   0  0  0  0  0  0  0  0  0  0  0  0
   58.5090   79.8800   29.2830 C   0  0  0  0  0  0  0  0  0  0  0  0
   58.1070   78.7410   28.3710 C   0  0  0  0  0  0  0  0  0  0  0  0
   56.6460   78.3770   28.4480 C   0  0  0  0  0  0  0  0  0  0  0  0
   55.6800   79.0980   27.7540 C   0  0  0  0  0  0  0  0  0  0  0  0
   54.3430   78.7190   27.8600 C   0  0  0  0  0  0  0  0  0  0  0  0
   53.2560   79.4600   27.1280 C   0  0  0  0  0  0  0  0  0  0  0  0
   53.7710   80.3100   25.9460 C   0  0  2  0  0  0  0  0  0  0  0  0
   52.9450   81.6040   25.7780 C   0  0  0  0  0  0  0  0  0  0  0  0
   53.0250   82.1350   24.3510 C   0  0  0  0  0  0  0  0  0  0  0  0
   52.3940   81.1460   23.3560 C   0  0  1  0  0  0  0  0  0  0  0  0
   52.9650   81.3570   22.0250 N   0  0  0  0  0  0  0  0  0  0  0  0
   52.5600   79.6820   23.7940 C   0  0  0  0  0  0  0  0  0  0  0  0
   53.8090   79.4740   24.6450 C   0  0  0  0  0  0  0  0  0  0  0  0
   54.0580   77.6300   28.6670 C   0  0  0  0  0  0  0  0  0  0  0  0
   55.0060   76.9470   29.3390 N   0  0  0  0  0  0  0  0  0  0  0  0
   56.3100   77.3250   29.2280 N   0  0  0  0  0  0  0  0  0  0  0  0
   59.2100   80.9840   28.7830 C   0  0  0  0  0  0  0  0  0  0  0  0
   59.5830   82.0330   29.6310 C   0  0  0  0  0  0  0  0  0  0  0  0
   59.9822   84.4828   30.3092 H   0  0  0  0  0  0  0  0  0  0  0  0
   60.3226   85.1175   32.0731 H   0  0  0  0  0  0  0  0  0  0  0  0
   59.6010   83.7797   33.9218 H   0  0  0  0  0  0  0  0  0  0  0  0
   58.8617   82.1680   33.6346 H   0  0  0  0  0  0  0  0  0  0  0  0
   60.6488   82.3493   33.6346 H   0  0  0  0  0  0  0  0  0  0  0  0
   58.3027   80.8514   32.5575 H   0  0  0  0  0  0  0  0  0  0  0  0
   57.6315   78.9889   31.0539 H   0  0  0  0  0  0  0  0  0  0  0  0
   58.3367   79.0305   27.3349 H   0  0  0  0  0  0  0  0  0  0  0  0
   58.6720   77.8565   28.7002 H   0  0  0  0  0  0  0  0  0  0  0  0
   55.9677   79.9565   27.1293 H   0  0  0  0  0  0  0  0  0  0  0  0
   52.5359   78.7250   26.7393 H   0  0  0  0  0  0  0  0  0  0  0  0
   52.7995   80.1547   27.8484 H   0  0  0  0  0  0  0  0  0  0  0  0
   54.8023   80.6191   26.1714 H   0  0  0  0  0  0  0  0  0  0  0  0
   51.8937   81.3915   26.0222 H   0  0  0  0  0  0  0  0  0  0  0  0
   53.3568   82.3673   26.4545 H   0  0  0  0  0  0  0  0  0  0  0  0
   52.4886   83.0936   24.2938 H   0  0  0  0  0  0  0  0  0  0  0  0
   54.0844   82.2685   24.0867 H   0  0  0  0  0  0  0  0  0  0  0  0
   51.3121   81.3429   23.3294 H   0  0  0  0  0  0  0  0  0  0  0  0
   52.9280   82.3470   21.7890 H   0  0  0  0  0  0  0  0  0  0  0  0
   53.9530   81.1030   22.0250 H   0  0  0  0  0  0  0  0  0  0  0  0
   51.6780   79.3854   24.3806 H   0  0  0  0  0  0  0  0  0  0  0  0
   52.6624   79.0675   22.8874 H   0  0  0  0  0  0  0  0  0  0  0  0
   53.8849   78.4090   24.9096 H   0  0  0  0  0  0  0  0  0  0  0  0
   54.6788   79.8014   24.0566 H   0  0  0  0  0  0  0  0  0  0  0  0
   53.0107   77.3080   28.7639 H   0  0  0  0  0  0  0  0  0  0  0  0
   59.4697   81.0272   27.7150 H   0  0  0  0  0  0  0  0  0  0  0  0
   60.1383   82.8899   29.2218 H   0  0  0  0  0  0  0  0  0  0  0  0
  1  2  2  0
  2  3  1  0
  2  4  1  0
  4  5  1  0
  5  6  2  0
  6  7  1  0
  7  8  1  0
  8  9  1  0
  9 10  2  0
 10 11  1  0
 11 12  1  0
 12 13  1  0
 13 14  1  0
 14 15  1  0
 15 16  1  0
 16 17  1  0
 16 18  1  0
 18 19  1  0
 11 20  2  0
 20 21  1  0
 21 22  2  0
  7 23  2  0
 23 24  1  0
 24  4  2  0
 22  9  1  0
 19 13  1  0
  1 25  1  0
  1 26  1  0
  3 27  1  0
  3 28  1  0
  3 29  1  0
  5 30  1  0
  6 31  1  0
  8 32  1  0
  8 33  1  0
 10 34  1  0
 12 35  1  0
 12 36  1  0
 13 37  1  6
 14 38  1  0
 14 39  1  0
 15 40  1  0
 15 41  1  0
 16 42  1  1
 17 43  1  0
 17 44  1  0
 18 45  1  0
 18 46  1  0
 19 47  1  0
 19 48  1  0
 20 49  1  0
 23 50  1  0
 24 51  1  0
M  END
>  <meeko>  (1) 
{"is_sidechain": false}

>  <smiles>  (1) 
C=C(C)c1ccc(Cc2cc(C[C@H]3CC[C@H](N)CC3)cnn2)cc1

>  <vina_score>  (1) 
-8.453

>  <job_id>  (1) 
144e0f63c0c69da9

$$$$
