
     RDKit          3D

 31 32  0  0  0  0  0  0  0  0999 V2000
   49.4460   81.3350   22.2470 N   0  0  0  0  0  0  0  0  0  0  0  0
   50.9630   81.5750   21.5550 S   0  0  0  0  0  0  0  0  0  0  0  0
   51.0640   83.0000   21.3310 O   0  0  0  0  0  0  0  0  0  0  0  0
   51.1310   80.6070   20.4980 O   0  0  0  0  0  0  0  0  0  0  0  0
   52.0360   81.1350   22.8950 C   0  0  0  0  0  0  0  0  0  0  0  0
   52.3420   79.7910   23.1130 C   0  0  0  0  0  0  0  0  0  0  0  0
   53.1930   79.4410   24.1650 C   0  0  0  0  0  0  0  0  0  0  0  0
   53.7540   80.4220   25.0030 C   0  0  0  0  0  0  0  0  0  0  0  0
   54.6520   80.0480   26.1080 C   0  0  0  0  0  0  0  0  0  0  0  0
   55.9340   80.6070   26.2200 C   0  0  0  0  0  0  0  0  0  0  0  0
   56.7960   80.2570   27.2700 C   0  0  0  0  0  0  0  0  0  0  0  0
   56.3890   79.3340   28.2320 C   0  0  0  0  0  0  0  0  0  0  0  0
   57.1150   78.9000   29.3030 O   0  0  0  0  0  0  0  0  0  0  0  0
   58.1480   79.7420   29.7860 C   0  0  0  0  0  0  0  0  0  0  0  0
   59.3100   79.5100   29.1390 F   0  0  0  0  0  0  0  0  0  0  0  0
   57.8140   81.0440   29.6610 F   0  0  0  0  0  0  0  0  0  0  0  0
   58.3400   79.4820   31.0970 F   0  0  0  0  0  0  0  0  0  0  0  0
   55.1140   78.7720   28.1310 C   0  0  0  0  0  0  0  0  0  0  0  0
   54.2560   79.1230   27.0840 C   0  0  0  0  0  0  0  0  0  0  0  0
   53.4360   81.7700   24.7530 C   0  0  0  0  0  0  0  0  0  0  0  0
   52.5860   82.1310   23.7040 C   0  0  0  0  0  0  0  0  0  0  0  0
   49.1540   82.1000   22.8530 H   0  0  0  0  0  0  0  0  0  0  0  0
   48.7690   81.1570   21.5020 H   0  0  0  0  0  0  0  0  0  0  0  0
   51.9167   79.0131   22.4619 H   0  0  0  0  0  0  0  0  0  0  0  0
   53.4281   78.3809   24.3407 H   0  0  0  0  0  0  0  0  0  0  0  0
   56.2706   81.3358   25.4679 H   0  0  0  0  0  0  0  0  0  0  0  0
   57.7954   80.7120   27.3343 H   0  0  0  0  0  0  0  0  0  0  0  0
   54.7806   78.0438   28.8850 H   0  0  0  0  0  0  0  0  0  0  0  0
   53.2567   78.6670   27.0255 H   0  0  0  0  0  0  0  0  0  0  0  0
   53.8643   82.5538   25.3950 H   0  0  0  0  0  0  0  0  0  0  0  0
   52.3526   83.1897   23.5176 H   0  0  0  0  0  0  0  0  0  0  0  0
  1  2  1  0
  2  3  2  0
  2  4  2  0
  2  5  1  0
  5  6  1  0
  6  7  2  0
  7  8  1  0
  8  9  1  0
  9 10  1  0
 10 11  2  0
 11 12  1  0
 12 13  1  0
 13 14  1  0
 14 15  1  0
 14 16  1  0
 14 17  1  0
 12 18  2  0
 18 19  1  0
  8 20  2  0
 20 21  1  0
 21  5  2  0
 19  9  2  0
  1 22  1  0
  1 23  1  0
  6 24  1  0
  7 25  1  0
 10 26  1  0
 11 27  1  0
 18 28  1  0
 19 29  1  0
 20 30  1  0
 21 31  1  0
M  END
>  <meeko>  (1) 
{"is_sidechain": false}

>  <smiles>  (1) 
NS(=O)(=O)c1ccc(-c2ccc(OC(F)(F)F)cc2)cc1

>  <vina_score>  (1) 
-8.015

>  <job_id>  (1) 
14b83e67bbaa0320

$$$$
