
     RDKit          3D

 38 39  0  0  0  0  0  0  0  0999 V2000
   59.5110   80.6090   29.1910 C   0  0  0  0  0  0  0  0  0  0  0  0
   58.1530   80.3610   29.8490 C   0  0  0  0  0  0  0  0  0  0  0  0
   58.3310   80.2210   31.3630 C   0  0  0  0  0  0  0  0  0  0  0  0
   57.4920   79.1150   29.2280 C   0  0  0  0  0  0  0  0  0  0  0  0
   56.4950   79.4420   28.1430 C   0  0  0  0  0  0  0  0  0  0  0  0
   55.3050   78.7310   28.0360 C   0  0  0  0  0  0  0  0  0  0  0  0
   54.4150   79.0520   27.0110 C   0  0  0  0  0  0  0  0  0  0  0  0
   54.7180   80.0740   26.1050 C   0  0  0  0  0  0  0  0  0  0  0  0
   53.8070   80.4390   25.0090 C   0  0  0  0  0  0  0  0  0  0  0  0
   53.2740   79.4560   24.1560 C   0  0  0  0  0  0  0  0  0  0  0  0
   52.4090   79.7970   23.1120 C   0  0  0  0  0  0  0  0  0  0  0  0
   52.0630   81.1350   22.9160 C   0  0  0  0  0  0  0  0  0  0  0  0
   50.9750   81.5640   21.5840 S   0  0  0  0  0  0  0  0  0  0  0  0
   49.4670   81.2900   22.2800 N   0  0  0  0  0  0  0  0  0  0  0  0
   51.0500   82.9910   21.3710 O   0  0  0  0  0  0  0  0  0  0  0  0
   51.1570   80.6070   20.5200 O   0  0  0  0  0  0  0  0  0  0  0  0
   52.5880   82.1320   23.7380 C   0  0  0  0  0  0  0  0  0  0  0  0
   53.4510   81.7800   24.7810 C   0  0  0  0  0  0  0  0  0  0  0  0
   55.9350   80.7240   26.3010 C   0  0  0  0  0  0  0  0  0  0  0  0
   56.8210   80.4360   27.2860 N   0  0  0  0  0  0  0  0  0  0  0  0
   60.2756   80.7486   29.9694 H   0  0  0  0  0  0  0  0  0  0  0  0
   59.7785   79.7448   28.5651 H   0  0  0  0  0  0  0  0  0  0  0  0
   59.4558   81.5119   28.5651 H   0  0  0  0  0  0  0  0  0  0  0  0
   57.4857   81.2166   29.6683 H   0  0  0  0  0  0  0  0  0  0  0  0
   57.5674   80.8216   31.8790 H   0  0  0  0  0  0  0  0  0  0  0  0
   58.2215   79.1645   31.6489 H   0  0  0  0  0  0  0  0  0  0  0  0
   59.3320   80.5764   31.6489 H   0  0  0  0  0  0  0  0  0  0  0  0
   58.2805   78.4805   28.7970 H   0  0  0  0  0  0  0  0  0  0  0  0
   56.9407   78.6056   30.0321 H   0  0  0  0  0  0  0  0  0  0  0  0
   55.0689   77.9273   28.7490 H   0  0  0  0  0  0  0  0  0  0  0  0
   53.4694   78.4983   26.9145 H   0  0  0  0  0  0  0  0  0  0  0  0
   53.5423   78.4008   24.3130 H   0  0  0  0  0  0  0  0  0  0  0  0
   52.0043   79.0171   22.4503 H   0  0  0  0  0  0  0  0  0  0  0  0
   49.1780   80.3330   22.0740 H   0  0  0  0  0  0  0  0  0  0  0  0
   48.7610   81.9710   21.9980 H   0  0  0  0  0  0  0  0  0  0  0  0
   52.3255   83.1865   23.5675 H   0  0  0  0  0  0  0  0  0  0  0  0
   53.8582   82.5659   25.4341 H   0  0  0  0  0  0  0  0  0  0  0  0
   56.1969   81.5328   25.6030 H   0  0  0  0  0  0  0  0  0  0  0  0
  1  2  1  0
  2  3  1  0
  2  4  1  0
  4  5  1  0
  5  6  2  0
  6  7  1  0
  7  8  2  0
  8  9  1  0
  9 10  1  0
 10 11  2  0
 11 12  1  0
 12 13  1  0
 13 14  1  0
 13 15  2  0
 13 16  2  0
 12 17  2  0
 17 18  1  0
  8 19  1  0
 19 20  2  0
 20  5  1  0
 18  9  2  0
  1 21  1  0
  1 22  1  0
  1 23  1  0
  2 24  1  0
  3 25  1  0
  3 26  1  0
  3 27  1  0
  4 28  1  0
  4 29  1  0
  6 30  1  0
  7 31  1  0
 10 32  1  0
 11 33  1  0
 14 34  1  0
 14 35  1  0
 17 36  1  0
 18 37  1  0
 19 38  1  0
M  END
>  <meeko>  (1) 
{"is_sidechain": false}

>  <smiles>  (1) 
CC(C)Cc1ccc(-c2ccc(S(N)(=O)=O)cc2)cn1

>  <vina_score>  (1) 
-7.846

>  <job_id>  (1) 
154442d180768a49

$$$$
