
     RDKit          3D

 58 62  0  0  0  0  0  0  0  0999 V2000
   66.4230   83.3550   30.6470 C   0  0  0  0  0  0  0  0  0  0  0  0
   65.8270   82.0720   30.8120 O   0  0  0  0  0  0  0  0  0  0  0  0
   65.1120   82.1170   32.0150 N   0  0  0  0  0  0  0  0  0  0  0  0
   63.7690   82.5690   31.9940 C   0  0  0  0  0  0  0  0  0  0  0  0
   63.3590   83.5330   32.9290 C   0  0  0  0  0  0  0  0  0  0  0  0
   62.0650   84.0710   32.9210 C   0  0  0  0  0  0  0  0  0  0  0  0
   61.2120   83.6190   31.9180 C   0  0  0  0  0  0  0  0  0  0  0  0
   59.9210   84.0200   31.7430 O   0  0  0  0  0  0  0  0  0  0  0  0
   59.4570   83.3510   30.6590 C   0  0  0  0  0  0  0  0  0  0  0  0
   58.1960   83.6240   30.3680 O   0  0  0  0  0  0  0  0  0  0  0  0
   60.4250   82.5290   30.1240 C   0  0  0  0  0  0  0  0  0  0  0  0
   60.3260   81.7130   29.0450 N   0  0  0  0  0  0  0  0  0  0  0  0
   59.1420   81.4870   28.3950 N   0  0  0  0  0  0  0  0  0  0  0  0
   58.2740   80.4170   28.7350 C   0  0  0  0  0  0  0  0  0  0  0  0
   58.4520   79.6500   29.8910 C   0  0  0  0  0  0  0  0  0  0  0  0
   57.5550   78.6360   30.2540 C   0  0  0  0  0  0  0  0  0  0  0  0
   56.4450   78.4280   29.4290 C   0  0  0  0  0  0  0  0  0  0  0  0
   55.4200   77.5130   29.5330 N   0  0  0  0  0  0  0  0  0  0  0  0
   54.5390   77.6600   28.4970 C   0  0  0  0  0  0  0  0  0  0  0  0
   53.4840   76.8610   28.4020 O   0  0  0  0  0  0  0  0  0  0  0  0
   54.9920   78.7050   27.7250 C   0  0  0  0  0  0  0  0  0  0  0  0
   54.3530   79.1340   26.5550 N   0  0  0  0  0  0  0  0  0  0  0  0
   53.8910   80.2900   26.6570 N   0  0  0  0  0  0  0  0  0  0  0  0
   53.2690   80.6800   25.4590 C   0  0  0  0  0  0  0  0  0  0  0  0
   52.7930   81.9860   25.2700 C   0  0  0  0  0  0  0  0  0  0  0  0
   52.1500   82.3460   24.0830 C   0  0  0  0  0  0  0  0  0  0  0  0
   51.9660   81.3840   23.0840 C   0  0  0  0  0  0  0  0  0  0  0  0
   51.1570   81.8440   21.5750 S   0  0  0  0  0  0  0  0  0  0  0  0
   49.5740   81.3570   21.8800 N   0  0  0  0  0  0  0  0  0  0  0  0
   51.6320   80.9820   20.5180 O   0  0  0  0  0  0  0  0  0  0  0  0
   51.1700   83.2830   21.4710 O   0  0  0  0  0  0  0  0  0  0  0  0
   52.4330   80.0790   23.2550 C   0  0  0  0  0  0  0  0  0  0  0  0
   53.0760   79.7320   24.4460 C   0  0  0  0  0  0  0  0  0  0  0  0
   56.2050   79.1930   28.2850 C   0  0  0  0  0  0  0  0  0  0  0  0
   57.1320   80.2030   27.9450 C   0  0  0  0  0  0  0  0  0  0  0  0
   61.5740   82.6890   30.9470 C   0  0  0  0  0  0  0  0  0  0  0  0
   62.8820   82.1670   30.9790 C   0  0  0  0  0  0  0  0  0  0  0  0
   66.6270   83.7943   31.6346 H   0  0  0  0  0  0  0  0  0  0  0  0
   67.3657   83.2524   30.0895 H   0  0  0  0  0  0  0  0  0  0  0  0
   65.7366   84.0092   30.0895 H   0  0  0  0  0  0  0  0  0  0  0  0
   65.1990   81.2460   32.5370 H   0  0  0  0  0  0  0  0  0  0  0  0
   64.0748   83.8761   33.6905 H   0  0  0  0  0  0  0  0  0  0  0  0
   61.7406   84.8110   33.6675 H   0  0  0  0  0  0  0  0  0  0  0  0
   58.0630   83.1590   29.5240 H   0  0  0  0  0  0  0  0  0  0  0  0
   61.1630   81.4050   28.5510 H   0  0  0  0  0  0  0  0  0  0  0  0
   59.2050   81.5910   27.3770 H   0  0  0  0  0  0  0  0  0  0  0  0
   59.3218   79.8485   30.5344 H   0  0  0  0  0  0  0  0  0  0  0  0
   57.7181   78.0261   31.1548 H   0  0  0  0  0  0  0  0  0  0  0  0
   55.3270   76.8200   30.2600 H   0  0  0  0  0  0  0  0  0  0  0  0
   53.7730   76.0890   27.8800 H   0  0  0  0  0  0  0  0  0  0  0  0
   52.9274   82.7345   26.0647 H   0  0  0  0  0  0  0  0  0  0  0  0
   51.7920   83.3756   23.9354 H   0  0  0  0  0  0  0  0  0  0  0  0
   49.0950   81.2120   20.9900 H   0  0  0  0  0  0  0  0  0  0  0  0
   49.5100   80.5400   22.4860 H   0  0  0  0  0  0  0  0  0  0  0  0
   52.2959   79.3315   22.4597 H   0  0  0  0  0  0  0  0  0  0  0  0
   53.4349   78.7022   24.5898 H   0  0  0  0  0  0  0  0  0  0  0  0
   56.9586   80.8264   27.0555 H   0  0  0  0  0  0  0  0  0  0  0  0
   63.2084   81.4479   30.2133 H   0  0  0  0  0  0  0  0  0  0  0  0
  1  2  1  0
  2  3  1  0
  3  4  1  0
  4  5  2  0
  5  6  1  0
  6  7  2  0
  7  8  1  0
  8  9  1  0
  9 10  1  0
  9 11  2  0
 11 12  1  0
 12 13  1  0
 13 14  1  0
 14 15  2  0
 15 16  1  0
 16 17  2  0
 17 18  1  0
 18 19  1  0
 19 20  1  0
 19 21  2  0
 21 22  1  0
 22 23  2  3
 23 24  1  0
 24 25  1  0
 25 26  2  0
 26 27  1  0
 27 28  1  0
 28 29  1  0
 28 30  2  0
 28 31  2  0
 27 32  2  0
 32 33  1  0
 21 34  1  0
 34 35  2  0
 11 36  1  0
 36 37  2  0
 37  4  1  0
 36  7  1  0
 35 14  1  0
 34 17  1  0
 33 24  2  0
  1 38  1  0
  1 39  1  0
  1 40  1  0
  3 41  1  0
  5 42  1  0
  6 43  1  0
 10 44  1  0
 12 45  1  0
 13 46  1  0
 15 47  1  0
 16 48  1  0
 18 49  1  0
 20 50  1  0
 25 51  1  0
 26 52  1  0
 29 53  1  0
 29 54  1  0
 32 55  1  0
 33 56  1  0
 35 57  1  0
 37 58  1  0
M  END
>  <meeko>  (1) 
{"is_sidechain": false}

>  <smiles>  (1) 
CONc1ccc2oc(O)c(NNc3ccc4[nH]c(O)c(N=Nc5ccc(S(N)(=O)=O)cc5)c4c3)c2c1

>  <vina_score>  (1) 
-9.187

>  <job_id>  (1) 
15565f9b12a08c30

$$$$
