
     RDKit          3D

 40 43  0  0  0  0  0  0  0  0999 V2000
   57.2460   79.3910   27.2700 O   0  0  0  0  0  0  0  0  0  0  0  0
   57.1020   80.5750   27.5440 C   0  0  0  0  0  0  0  0  0  0  0  0
   57.8510   81.2070   28.5230 N   0  0  0  0  0  0  0  0  0  0  0  0
   58.9350   80.5060   29.2160 C   0  0  0  0  0  0  0  0  0  0  0  0
   58.4610   79.8570   30.5240 C   0  0  0  0  0  0  0  0  0  0  0  0
   58.2080   80.8940   31.6150 C   0  0  0  0  0  0  0  0  0  0  0  0
   59.3930   81.7200   31.8470 N   0  0  0  0  0  0  0  0  0  0  0  0
   59.8000   82.4260   30.6360 C   0  0  0  0  0  0  0  0  0  0  0  0
   60.1080   81.4520   29.5020 C   0  0  0  0  0  0  0  0  0  0  0  0
   56.1570   81.4430   26.8950 C   0  0  0  0  0  0  0  0  0  0  0  0
   56.3100   82.8030   26.8120 N   0  0  0  0  0  0  0  0  0  0  0  0
   55.3470   83.4310   26.1190 N   0  0  0  0  0  0  0  0  0  0  0  0
   54.5070   82.4450   25.7980 C   0  0  0  0  0  0  0  0  0  0  0  0
   54.9510   81.1910   26.2670 C   0  0  0  0  0  0  0  0  0  0  0  0
   54.2500   79.9430   26.0330 C   0  0  0  0  0  0  0  0  0  0  0  0
   53.7100   79.5430   24.7930 C   0  0  0  0  0  0  0  0  0  0  0  0
   53.1030   78.3570   24.8580 N   0  0  0  0  0  0  0  0  0  0  0  0
   53.2510   77.9870   26.1430 N   0  0  0  0  0  0  0  0  0  0  0  0
   52.7370   76.8070   26.5610 N   0  0  0  0  0  0  0  0  0  0  0  0
   52.9350   76.5980   27.8230 C   0  0  0  0  0  0  0  0  0  0  0  0
   53.6280   77.5040   28.7700 C   0  0  0  0  0  0  0  0  0  0  0  0
   54.1030   78.6530   28.2760 C   0  0  0  0  0  0  0  0  0  0  0  0
   53.9260   78.9260   26.8990 C   0  0  0  0  0  0  0  0  0  0  0  0
   57.9410   82.2110   28.4340 H   0  0  0  0  0  0  0  0  0  0  0  0
   59.2732   79.7049   28.5423 H   0  0  0  0  0  0  0  0  0  0  0  0
   57.5270   79.3089   30.3309 H   0  0  0  0  0  0  0  0  0  0  0  0
   59.2533   79.1794   30.8749 H   0  0  0  0  0  0  0  0  0  0  0  0
   57.3740   81.5419   31.3073 H   0  0  0  0  0  0  0  0  0  0  0  0
   57.9651   80.3646   32.5482 H   0  0  0  0  0  0  0  0  0  0  0  0
   59.1960   82.3930   32.5890 H   0  0  0  0  0  0  0  0  0  0  0  0
   58.9863   83.0961   30.3215 H   0  0  0  0  0  0  0  0  0  0  0  0
   60.7124   82.9987   30.8586 H   0  0  0  0  0  0  0  0  0  0  0  0
   60.3292   82.0275   28.5910 H   0  0  0  0  0  0  0  0  0  0  0  0
   60.9690   80.8394   29.8076 H   0  0  0  0  0  0  0  0  0  0  0  0
   57.0580   83.3630   27.2080 H   0  0  0  0  0  0  0  0  0  0  0  0
   53.5752   82.5932   25.2325 H   0  0  0  0  0  0  0  0  0  0  0  0
   53.7815   80.1429   23.8737 H   0  0  0  0  0  0  0  0  0  0  0  0
   52.5504   75.6530   28.2342 H   0  0  0  0  0  0  0  0  0  0  0  0
   53.7464   77.2430   29.8320 H   0  0  0  0  0  0  0  0  0  0  0  0
   54.6212   79.3717   28.9279 H   0  0  0  0  0  0  0  0  0  0  0  0
  1  2  2  0
  2  3  1  0
  3  4  1  0
  4  5  1  0
  5  6  1  0
  6  7  1  0
  7  8  1  0
  8  9  1  0
  2 10  1  0
 10 11  1  0
 11 12  1  0
 12 13  2  0
 13 14  1  0
 14 15  1  0
 15 16  1  0
 16 17  2  0
 17 18  1  0
 18 19  1  0
 19 20  2  0
 20 21  1  0
 21 22  2  0
 22 23  1  0
  9  4  1  0
 14 10  2  0
 23 15  2  0
 23 18  1  0
  3 24  1  0
  4 25  1  0
  5 26  1  0
  5 27  1  0
  6 28  1  0
  6 29  1  0
  7 30  1  0
  8 31  1  0
  8 32  1  0
  9 33  1  0
  9 34  1  0
 11 35  1  0
 13 36  1  0
 16 37  1  0
 20 38  1  0
 21 39  1  0
 22 40  1  0
M  END
>  <meeko>  (1) 
{"is_sidechain": false}

>  <smiles>  (1) 
O=C(NC1CCNCC1)c1[nH]ncc1-c1cnn2ncccc12

>  <vina_score>  (1) 
-8.138

>  <job_id>  (1) 
157f63102308d05b

$$$$
