
     RDKit          3D

 53 57  0  0  0  0  0  0  0  0999 V2000
   51.3290   81.3410   22.3020 C   0  0  0  0  0  0  0  0  0  0  0  0
   52.1510   80.5150   23.1530 N   0  0  0  0  0  0  0  0  0  0  0  0
   52.9380   80.9260   24.1920 C   0  0  0  0  0  0  0  0  0  0  0  0
   53.5270   79.7890   24.7040 C   0  0  0  0  0  0  0  0  0  0  0  0
   54.4300   79.7050   25.8040 C   0  0  0  0  0  0  0  0  0  0  0  0
   55.5050   80.7350   26.0240 C   0  0  0  0  0  0  0  0  0  0  0  0
   56.3790   80.7690   26.9870 N   0  0  0  0  0  0  0  0  0  0  0  0
   56.3100   79.7460   27.8960 C   0  0  0  0  0  0  0  0  0  0  0  0
   57.0460   79.4420   29.0270 C   0  0  0  0  0  0  0  0  0  0  0  0
   58.1760   80.1680   29.6170 C   0  0  0  0  0  0  0  0  0  0  0  0
   59.0540   80.9750   28.9260 C   0  0  0  0  0  0  0  0  0  0  0  0
   60.2550   81.6520   29.9330 S   0  0  0  0  0  0  0  0  0  0  0  0
   59.6150   80.8900   31.3310 C   0  0  0  0  0  0  0  0  0  0  0  0
   60.2660   81.1110   32.6180 C   0  0  0  0  0  0  0  0  0  0  0  0
   59.8950   80.6100   33.6770 O   0  0  0  0  0  0  0  0  0  0  0  0
   61.3770   81.9280   32.5700 N   0  0  0  0  0  0  0  0  0  0  0  0
   62.2520   82.1450   33.7200 C   0  0  2  0  0  0  0  0  0  0  0  0
   61.8300   83.4010   34.5030 C   0  0  0  0  0  0  0  0  0  0  0  0
   63.0110   84.0700   35.1940 C   0  0  0  0  0  0  0  0  0  0  0  0
   64.0640   84.5350   34.1870 C   0  0  0  0  0  0  0  0  0  0  0  0
   64.1660   83.6430   32.9470 C   0  0  0  0  0  0  0  0  0  0  0  0
   63.7390   82.2040   33.2480 C   0  0  2  0  0  0  0  0  0  0  0  0
   63.9530   81.3570   32.0550 N   0  0  0  0  0  0  0  0  0  0  0  0
   58.5090   80.1190   31.0090 C   0  0  0  0  0  0  0  0  0  0  0  0
   56.4730   78.2530   29.5160 C   0  0  0  0  0  0  0  0  0  0  0  0
   55.4540   77.8190   28.7730 N   0  0  0  0  0  0  0  0  0  0  0  0
   55.3530   78.7340   27.7780 N   0  0  0  0  0  0  0  0  0  0  0  0
   54.4350   78.7330   26.7350 C   0  0  0  0  0  0  0  0  0  0  0  0
   53.0200   78.7460   23.8960 C   0  0  0  0  0  0  0  0  0  0  0  0
   52.1850   79.1870   22.9520 N   0  0  0  0  0  0  0  0  0  0  0  0
   50.6887   81.9844   22.9233 H   0  0  0  0  0  0  0  0  0  0  0  0
   51.9725   81.9677   21.6670 H   0  0  0  0  0  0  0  0  0  0  0  0
   50.6992   80.7006   21.6670 H   0  0  0  0  0  0  0  0  0  0  0  0
   53.0744   81.9576   24.5486 H   0  0  0  0  0  0  0  0  0  0  0  0
   55.5576   81.5507   25.2879 H   0  0  0  0  0  0  0  0  0  0  0  0
   58.9881   81.1624   27.8441 H   0  0  0  0  0  0  0  0  0  0  0  0
   61.8250   82.1040   31.6780 H   0  0  0  0  0  0  0  0  0  0  0  0
   62.1567   81.2989   34.4164 H   0  0  0  0  0  0  0  0  0  0  0  0
   61.3753   84.1184   33.8040 H   0  0  0  0  0  0  0  0  0  0  0  0
   61.1147   83.0914   35.2793 H   0  0  0  0  0  0  0  0  0  0  0  0
   62.6474   84.9415   35.7581 H   0  0  0  0  0  0  0  0  0  0  0  0
   63.4784   83.3343   35.8650 H   0  0  0  0  0  0  0  0  0  0  0  0
   63.8073   85.5539   33.8616 H   0  0  0  0  0  0  0  0  0  0  0  0
   65.0379   84.4899   34.6964 H   0  0  0  0  0  0  0  0  0  0  0  0
   63.5147   84.0509   32.1599 H   0  0  0  0  0  0  0  0  0  0  0  0
   65.2164   83.6279   32.6209 H   0  0  0  0  0  0  0  0  0  0  0  0
   64.3592   81.8177   34.0703 H   0  0  0  0  0  0  0  0  0  0  0  0
   64.8340   80.8510   32.1630 H   0  0  0  0  0  0  0  0  0  0  0  0
   63.2260   80.6400   32.0320 H   0  0  0  0  0  0  0  0  0  0  0  0
   57.9449   79.5299   31.7470 H   0  0  0  0  0  0  0  0  0  0  0  0
   56.8292   77.7348   30.4186 H   0  0  0  0  0  0  0  0  0  0  0  0
   53.6965   77.9204   26.6687 H   0  0  0  0  0  0  0  0  0  0  0  0
   53.2844   77.6867   24.0302 H   0  0  0  0  0  0  0  0  0  0  0  0
  1  2  1  0
  2  3  1  0
  3  4  2  0
  4  5  1  0
  5  6  1  0
  6  7  2  0
  7  8  1  0
  8  9  2  0
  9 10  1  0
 10 11  2  0
 11 12  1  0
 12 13  1  0
 13 14  1  0
 14 15  2  0
 14 16  1  0
 16 17  1  0
 17 18  1  0
 18 19  1  0
 19 20  1  0
 20 21  1  0
 21 22  1  0
 22 23  1  0
 13 24  2  0
  9 25  1  0
 25 26  2  0
 26 27  1  0
 27 28  1  0
  4 29  1  0
 29 30  2  0
 30  2  1  0
 28  5  2  0
 27  8  1  0
 24 10  1  0
 22 17  1  0
  1 31  1  0
  1 32  1  0
  1 33  1  0
  3 34  1  0
  6 35  1  0
 11 36  1  0
 16 37  1  0
 17 38  1  1
 18 39  1  0
 18 40  1  0
 19 41  1  0
 19 42  1  0
 20 43  1  0
 20 44  1  0
 21 45  1  0
 21 46  1  0
 22 47  1  1
 23 48  1  0
 23 49  1  0
 24 50  1  0
 25 51  1  0
 28 52  1  0
 29 53  1  0
M  END
>  <meeko>  (1) 
{"is_sidechain": false}

>  <smiles>  (1) 
Cn1cc(-c2cnc3c(-c4csc(C(=O)N[C@@H]5CCCC[C@@H]5N)c4)cnn3c2)cn1

>  <vina_score>  (1) 
-7.934

>  <job_id>  (1) 
162002ab74d2888d

$$$$
