
     RDKit          3D

 49 51  0  0  0  0  0  0  0  0999 V2000
   59.2650   80.6070   32.1620 C   0  0  0  0  0  0  0  0  0  0  0  0
   59.3260   80.2890   30.6710 C   0  0  0  0  0  0  0  0  0  0  0  0
   59.7830   81.5090   29.8770 C   0  0  0  0  0  0  0  0  0  0  0  0
   58.0240   79.8350   30.2000 N   0  0  0  0  0  0  0  0  0  0  0  0
   57.8910   79.0810   29.0530 C   0  0  0  0  0  0  0  0  0  0  0  0
   58.8410   78.6720   28.3950 O   0  0  0  0  0  0  0  0  0  0  0  0
   56.5000   78.7410   28.6440 C   0  0  0  0  0  0  0  0  0  0  0  0
   55.9110   77.5170   28.9710 C   0  0  0  0  0  0  0  0  0  0  0  0
   54.6020   77.2480   28.5700 C   0  0  0  0  0  0  0  0  0  0  0  0
   53.8800   78.2040   27.8480 C   0  0  0  0  0  0  0  0  0  0  0  0
   52.5890   77.9160   27.4900 O   0  0  0  0  0  0  0  0  0  0  0  0
   54.4400   79.4500   27.5060 C   0  0  0  0  0  0  0  0  0  0  0  0
   53.7150   80.4910   26.7480 C   0  0  0  0  0  0  0  0  0  0  0  0
   52.6840   80.2140   25.8780 C   0  0  0  0  0  0  0  0  0  0  0  0
   52.1250   81.2910   25.2370 C   0  0  0  0  0  0  0  0  0  0  0  0
   51.0990   81.0860   24.3090 N   0  0  0  0  0  0  0  0  0  0  0  0
   51.3550   81.2270   23.0480 C   0  0  0  0  0  0  0  0  0  0  0  0
   50.2720   80.9820   22.0270 C   0  0  0  0  0  0  0  0  0  0  0  0
   51.0650   80.9820   20.7270 C   0  0  0  0  0  0  0  0  0  0  0  0
   52.2130   81.9510   20.9820 C   0  0  0  0  0  0  0  0  0  0  0  0
   52.6580   81.6450   22.4070 C   0  0  0  0  0  0  0  0  0  0  0  0
   52.5490   82.5530   25.3930 N   0  0  0  0  0  0  0  0  0  0  0  0
   53.5440   82.7290   26.2560 C   0  0  0  0  0  0  0  0  0  0  0  0
   54.0140   84.0140   26.4340 N   0  0  0  0  0  0  0  0  0  0  0  0
   54.1580   81.7560   26.9310 N   0  0  0  0  0  0  0  0  0  0  0  0
   55.7600   79.6990   27.9350 C   0  0  0  0  0  0  0  0  0  0  0  0
   59.4413   79.6881   32.7404 H   0  0  0  0  0  0  0  0  0  0  0  0
   60.0369   81.3503   32.4103 H   0  0  0  0  0  0  0  0  0  0  0  0
   58.2728   81.0119   32.4103 H   0  0  0  0  0  0  0  0  0  0  0  0
   60.0591   79.4836   30.5166 H   0  0  0  0  0  0  0  0  0  0  0  0
   60.0822   82.3076   30.5718 H   0  0  0  0  0  0  0  0  0  0  0  0
   60.6392   81.2344   29.2434 H   0  0  0  0  0  0  0  0  0  0  0  0
   58.9571   81.8646   29.2434 H   0  0  0  0  0  0  0  0  0  0  0  0
   57.2050   80.1060   30.7250 H   0  0  0  0  0  0  0  0  0  0  0  0
   56.4777   76.7675   29.5430 H   0  0  0  0  0  0  0  0  0  0  0  0
   54.1374   76.2833   28.8219 H   0  0  0  0  0  0  0  0  0  0  0  0
   52.3120   78.5110   26.7740 H   0  0  0  0  0  0  0  0  0  0  0  0
   52.3286   79.1872   25.7065 H   0  0  0  0  0  0  0  0  0  0  0  0
   49.7757   80.0146   22.1936 H   0  0  0  0  0  0  0  0  0  0  0  0
   49.4589   81.7224   22.0532 H   0  0  0  0  0  0  0  0  0  0  0  0
   51.4479   79.9750   20.5049 H   0  0  0  0  0  0  0  0  0  0  0  0
   50.4521   81.2770   19.8625 H   0  0  0  0  0  0  0  0  0  0  0  0
   53.0346   81.7766   20.2717 H   0  0  0  0  0  0  0  0  0  0  0  0
   51.9117   83.0011   20.8532 H   0  0  0  0  0  0  0  0  0  0  0  0
   53.3967   80.8303   22.4308 H   0  0  0  0  0  0  0  0  0  0  0  0
   53.1555   82.4865   22.9113 H   0  0  0  0  0  0  0  0  0  0  0  0
   53.4710   84.4730   27.1510 H   0  0  0  0  0  0  0  0  0  0  0  0
   55.0170   83.9910   26.5580 H   0  0  0  0  0  0  0  0  0  0  0  0
   56.2221   80.6710   27.7075 H   0  0  0  0  0  0  0  0  0  0  0  0
  1  2  1  0
  2  3  1  0
  2  4  1  0
  4  5  1  0
  5  6  2  0
  5  7  1  0
  7  8  1  0
  8  9  2  0
  9 10  1  0
 10 11  1  0
 10 12  2  0
 12 13  1  0
 13 14  1  0
 14 15  2  0
 15 16  1  0
 16 17  2  3
 17 18  1  0
 18 19  1  0
 19 20  1  0
 20 21  1  0
 15 22  1  0
 22 23  2  0
 23 24  1  0
 23 25  1  0
 12 26  1  0
 26  7  2  0
 25 13  2  0
 21 17  1  0
  1 27  1  0
  1 28  1  0
  1 29  1  0
  2 30  1  0
  3 31  1  0
  3 32  1  0
  3 33  1  0
  4 34  1  0
  8 35  1  0
  9 36  1  0
 11 37  1  0
 14 38  1  0
 18 39  1  0
 18 40  1  0
 19 41  1  0
 19 42  1  0
 20 43  1  0
 20 44  1  0
 21 45  1  0
 21 46  1  0
 24 47  1  0
 24 48  1  0
 26 49  1  0
M  END
>  <meeko>  (1) 
{"is_sidechain": false}

>  <smiles>  (1) 
CC(C)NC(=O)c1ccc(O)c(-c2cc(N=C3CCCC3)nc(N)n2)c1

>  <vina_score>  (1) 
-8.067

>  <job_id>  (1) 
162a37dbfb26dec8

$$$$
