
     RDKit          3D

 42 44  0  0  0  0  0  0  0  0999 V2000
   59.3130   81.0010   28.9820 C   0  0  0  0  0  0  0  0  0  0  0  0
   58.5190   79.7650   29.4150 C   0  0  0  0  0  0  0  0  0  0  0  0
   58.1820   79.8570   30.9030 C   0  0  0  0  0  0  0  0  0  0  0  0
   57.2280   79.6060   28.5920 C   0  0  0  0  0  0  0  0  0  0  0  0
   57.3750   80.1850   27.2680 N   0  0  0  0  0  0  0  0  0  0  0  0
   56.3390   80.9930   26.8250 C   0  0  0  0  0  0  0  0  0  0  0  0
   56.3410   82.2390   27.3230 N   0  0  0  0  0  0  0  0  0  0  0  0
   55.3640   83.0730   26.9200 C   0  0  0  0  0  0  0  0  0  0  0  0
   54.3840   82.7080   26.0330 C   0  0  0  0  0  0  0  0  0  0  0  0
   54.4680   81.3940   25.5990 C   0  0  0  0  0  0  0  0  0  0  0  0
   55.4180   80.5260   25.9730 N   0  0  0  0  0  0  0  0  0  0  0  0
   53.4580   80.9420   24.6590 C   0  0  0  0  0  0  0  0  0  0  0  0
   52.5470   81.7850   24.0470 C   0  0  0  0  0  0  0  0  0  0  0  0
   51.7640   80.9540   23.1980 C   0  0  0  0  0  0  0  0  0  0  0  0
   50.6590   81.3260   22.3020 C   0  0  0  0  0  0  0  0  0  0  0  0
   49.4030   80.9820   22.7380 N   0  0  0  0  0  0  0  0  0  0  0  0
   50.7910   81.8690   21.2080 O   0  0  0  0  0  0  0  0  0  0  0  0
   52.1730   79.6730   23.2980 N   0  0  0  0  0  0  0  0  0  0  0  0
   53.2070   79.6970   24.1640 N   0  0  0  0  0  0  0  0  0  0  0  0
   53.9010   78.4670   24.4570 C   0  0  0  0  0  0  0  0  0  0  0  0
   52.5920   83.2600   24.2710 C   0  0  0  0  0  0  0  0  0  0  0  0
   53.2430   83.6100   25.6330 C   0  0  0  0  0  0  0  0  0  0  0  0
   59.6616   81.5436   29.8731 H   0  0  0  0  0  0  0  0  0  0  0  0
   60.1795   80.6881   28.3809 H   0  0  0  0  0  0  0  0  0  0  0  0
   58.6682   81.6590   28.3809 H   0  0  0  0  0  0  0  0  0  0  0  0
   59.1459   78.8794   29.2340 H   0  0  0  0  0  0  0  0  0  0  0  0
   59.0752   79.6132   31.4970 H   0  0  0  0  0  0  0  0  0  0  0  0
   57.8507   80.8785   31.1414 H   0  0  0  0  0  0  0  0  0  0  0  0
   57.3776   79.1456   31.1414 H   0  0  0  0  0  0  0  0  0  0  0  0
   56.9958   78.5355   28.4918 H   0  0  0  0  0  0  0  0  0  0  0  0
   56.4149   80.1318   29.1140 H   0  0  0  0  0  0  0  0  0  0  0  0
   58.2240   80.7210   27.1160 H   0  0  0  0  0  0  0  0  0  0  0  0
   55.3512   84.0969   27.3218 H   0  0  0  0  0  0  0  0  0  0  0  0
   48.6900   81.0640   22.0260 H   0  0  0  0  0  0  0  0  0  0  0  0
   49.3130   80.2150   23.3890 H   0  0  0  0  0  0  0  0  0  0  0  0
   53.9739   78.3378   25.5470 H   0  0  0  0  0  0  0  0  0  0  0  0
   53.3470   77.6212   24.0238 H   0  0  0  0  0  0  0  0  0  0  0  0
   54.9114   78.5039   24.0238 H   0  0  0  0  0  0  0  0  0  0  0  0
   53.1779   83.7259   23.4650 H   0  0  0  0  0  0  0  0  0  0  0  0
   51.5594   83.6392   24.2754 H   0  0  0  0  0  0  0  0  0  0  0  0
   53.6236   84.6405   25.5768 H   0  0  0  0  0  0  0  0  0  0  0  0
   52.4607   83.4804   26.3953 H   0  0  0  0  0  0  0  0  0  0  0  0
  1  2  1  0
  2  3  1  0
  2  4  1  0
  4  5  1  0
  5  6  1  0
  6  7  2  0
  7  8  1  0
  8  9  2  0
  9 10  1  0
 10 11  2  0
 10 12  1  0
 12 13  2  0
 13 14  1  0
 14 15  1  0
 15 16  1  0
 15 17  2  0
 14 18  2  0
 18 19  1  0
 19 20  1  0
 13 21  1  0
 21 22  1  0
 11  6  1  0
 19 12  1  0
 22  9  1  0
  1 23  1  0
  1 24  1  0
  1 25  1  0
  2 26  1  0
  3 27  1  0
  3 28  1  0
  3 29  1  0
  4 30  1  0
  4 31  1  0
  5 32  1  0
  8 33  1  0
 16 34  1  0
 16 35  1  0
 20 36  1  0
 20 37  1  0
 20 38  1  0
 21 39  1  0
 21 40  1  0
 22 41  1  0
 22 42  1  0
M  END
>  <meeko>  (1) 
{"is_sidechain": false}

>  <smiles>  (1) 
CC(C)CNc1ncc2c(n1)-c1c(c(C(N)=O)nn1C)CC2

>  <vina_score>  (1) 
-7.395

>  <job_id>  (1) 
16b37c6d1423548c

$$$$
