
     RDKit          3D

 38 39  0  0  0  0  0  0  0  0999 V2000
   52.1850   75.5530   26.7760 C   0  0  0  0  0  0  0  0  0  0  0  0
   52.5720   76.9050   26.9930 O   0  0  0  0  0  0  0  0  0  0  0  0
   53.6420   77.1210   27.8320 C   0  0  0  0  0  0  0  0  0  0  0  0
   54.0870   76.2250   28.8090 C   0  0  0  0  0  0  0  0  0  0  0  0
   55.1850   76.5500   29.6090 C   0  0  0  0  0  0  0  0  0  0  0  0
   55.8400   77.7660   29.4370 C   0  0  0  0  0  0  0  0  0  0  0  0
   55.4040   78.6670   28.4650 C   0  0  0  0  0  0  0  0  0  0  0  0
   54.3070   78.3550   27.6600 C   0  0  0  0  0  0  0  0  0  0  0  0
   53.8060   79.2150   26.6580 N   0  0  0  0  0  0  0  0  0  0  0  0
   54.5120   80.0610   25.8300 C   0  0  0  0  0  0  0  0  0  0  0  0
   55.7220   80.2320   25.7820 O   0  0  0  0  0  0  0  0  0  0  0  0
   53.6430   80.8110   24.8960 C   0  0  0  0  0  0  0  0  0  0  0  0
   53.1530   80.0790   23.7960 C   0  0  0  0  0  0  0  0  0  0  0  0
   52.3650   80.7050   22.8350 C   0  0  0  0  0  0  0  0  0  0  0  0
   52.0780   82.0550   22.9730 C   0  0  0  0  0  0  0  0  0  0  0  0
   51.3230   82.6640   22.0490 F   0  0  0  0  0  0  0  0  0  0  0  0
   52.5620   82.7860   24.0550 C   0  0  0  0  0  0  0  0  0  0  0  0
   53.3520   82.1830   25.0520 C   0  0  0  0  0  0  0  0  0  0  0  0
   53.7730   83.0270   26.1000 N   0  0  0  0  0  0  0  0  0  0  0  0
   52.9350   82.8520   27.2930 C   0  0  0  0  0  0  0  0  0  0  0  0
   54.0470   84.4260   25.7700 C   0  0  0  0  0  0  0  0  0  0  0  0
   52.0418   75.0526   27.7450 H   0  0  0  0  0  0  0  0  0  0  0  0
   51.2436   75.5278   26.2076 H   0  0  0  0  0  0  0  0  0  0  0  0
   52.9705   75.0335   26.2076 H   0  0  0  0  0  0  0  0  0  0  0  0
   53.5718   75.2631   28.9477 H   0  0  0  0  0  0  0  0  0  0  0  0
   55.5328   75.8432   30.3768 H   0  0  0  0  0  0  0  0  0  0  0  0
   56.7042   78.0175   30.0694 H   0  0  0  0  0  0  0  0  0  0  0  0
   55.9262   79.6260   28.3326 H   0  0  0  0  0  0  0  0  0  0  0  0
   52.7930   79.2050   26.5810 H   0  0  0  0  0  0  0  0  0  0  0  0
   53.3940   79.0103   23.6968 H   0  0  0  0  0  0  0  0  0  0  0  0
   51.9750   80.1370   21.9775 H   0  0  0  0  0  0  0  0  0  0  0  0
   52.3220   83.8567   24.1322 H   0  0  0  0  0  0  0  0  0  0  0  0
   53.5506   82.9805   28.1955 H   0  0  0  0  0  0  0  0  0  0  0  0
   52.1297   83.6014   27.2886 H   0  0  0  0  0  0  0  0  0  0  0  0
   52.4969   81.8430   27.2886 H   0  0  0  0  0  0  0  0  0  0  0  0
   54.1606   85.0061   26.6977 H   0  0  0  0  0  0  0  0  0  0  0  0
   54.9746   84.4892   25.1821 H   0  0  0  0  0  0  0  0  0  0  0  0
   53.2118   84.8344   25.1821 H   0  0  0  0  0  0  0  0  0  0  0  0
  1  2  1  0
  2  3  1  0
  3  4  2  0
  4  5  1  0
  5  6  2  0
  6  7  1  0
  7  8  2  0
  8  9  1  0
  9 10  1  0
 10 11  2  0
 10 12  1  0
 12 13  1  0
 13 14  2  0
 14 15  1  0
 15 16  1  0
 15 17  2  0
 17 18  1  0
 18 19  1  0
 19 20  1  0
 19 21  1  0
  8  3  1  0
 18 12  2  0
  1 22  1  0
  1 23  1  0
  1 24  1  0
  4 25  1  0
  5 26  1  0
  6 27  1  0
  7 28  1  0
  9 29  1  0
 13 30  1  0
 14 31  1  0
 17 32  1  0
 20 33  1  0
 20 34  1  0
 20 35  1  0
 21 36  1  0
 21 37  1  0
 21 38  1  0
M  END
>  <meeko>  (1) 
{"is_sidechain": false}

>  <smiles>  (1) 
COc1ccccc1NC(=O)c1ccc(F)cc1N(C)C

>  <vina_score>  (1) 
-7.463

>  <job_id>  (1) 
16e9e39a2dfc2972

$$$$
