
     RDKit          3D

 51 53  0  0  0  0  0  0  0  0999 V2000
   53.6870   78.7320   24.3250 C   0  0  0  0  0  0  0  0  0  0  0  0
   53.3920   80.0570   24.9700 C   0  0  0  0  0  0  0  0  0  0  0  0
   52.9420   81.1170   24.1670 C   0  0  0  0  0  0  0  0  0  0  0  0
   52.6920   82.3760   24.7170 C   0  0  0  0  0  0  0  0  0  0  0  0
   52.8870   82.6000   26.0770 C   0  0  0  0  0  0  0  0  0  0  0  0
   53.3170   81.5570   26.8940 C   0  0  0  0  0  0  0  0  0  0  0  0
   53.5480   80.2860   26.3510 C   0  0  0  0  0  0  0  0  0  0  0  0
   53.9530   79.2190   27.3040 C   0  0  0  0  0  0  0  0  0  0  0  0
   53.1230   78.3960   27.6560 O   0  0  0  0  0  0  0  0  0  0  0  0
   55.2910   79.2570   27.6470 N   0  0  0  0  0  0  0  0  0  0  0  0
   55.9490   78.3000   28.4000 C   0  0  0  0  0  0  0  0  0  0  0  0
   55.4020   77.4820   29.1350 O   0  0  0  0  0  0  0  0  0  0  0  0
   57.4700   78.4050   28.3820 C   0  0  0  0  0  0  0  0  0  0  0  0
   58.0530   79.4810   29.2660 C   0  0  0  0  0  0  0  0  0  0  0  0
   57.8050   79.4820   30.6390 C   0  0  0  0  0  0  0  0  0  0  0  0
   58.3920   80.4500   31.4640 C   0  0  0  0  0  0  0  0  0  0  0  0
   59.2380   81.4520   30.9600 C   0  0  0  0  0  0  0  0  0  0  0  0
   59.8210   82.3960   31.7870 N   0  0  0  0  0  0  0  0  0  0  0  0
   60.0570   83.7760   31.3270 C   0  0  0  0  0  0  0  0  0  0  0  0
   61.2930   84.4000   32.0190 C   0  0  0  0  0  0  0  0  0  0  0  0
   61.2790   84.3870   33.4970 N   0  0  0  0  0  0  0  0  0  0  0  0
   60.8490   85.6680   34.0480 C   0  0  0  0  0  0  0  0  0  0  0  0
   60.4390   83.2870   34.0170 C   0  0  0  0  0  0  0  0  0  0  0  0
   60.3860   82.0440   33.1000 C   0  0  0  0  0  0  0  0  0  0  0  0
   59.4650   81.4320   29.5750 C   0  0  0  0  0  0  0  0  0  0  0  0
   58.8850   80.4700   28.7380 C   0  0  0  0  0  0  0  0  0  0  0  0
   53.8557   77.9743   25.1044 H   0  0  0  0  0  0  0  0  0  0  0  0
   52.8339   78.4308   23.6993 H   0  0  0  0  0  0  0  0  0  0  0  0
   54.5873   78.8211   23.6993 H   0  0  0  0  0  0  0  0  0  0  0  0
   52.7843   80.9537   23.0907 H   0  0  0  0  0  0  0  0  0  0  0  0
   52.3393   83.1946   24.0725 H   0  0  0  0  0  0  0  0  0  0  0  0
   52.7023   83.5965   26.5047 H   0  0  0  0  0  0  0  0  0  0  0  0
   53.4757   81.7315   27.9684 H   0  0  0  0  0  0  0  0  0  0  0  0
   55.8620   79.8950   27.1100 H   0  0  0  0  0  0  0  0  0  0  0  0
   57.8812   77.4381   28.7074 H   0  0  0  0  0  0  0  0  0  0  0  0
   57.7440   78.6762   27.3518 H   0  0  0  0  0  0  0  0  0  0  0  0
   57.1448   78.7184   31.0761 H   0  0  0  0  0  0  0  0  0  0  0  0
   58.1834   80.4247   32.5437 H   0  0  0  0  0  0  0  0  0  0  0  0
   60.2225   83.7671   30.2396 H   0  0  0  0  0  0  0  0  0  0  0  0
   59.1751   84.3813   31.5835 H   0  0  0  0  0  0  0  0  0  0  0  0
   62.1823   83.8453   31.6852 H   0  0  0  0  0  0  0  0  0  0  0  0
   61.2924   85.4614   31.7301 H   0  0  0  0  0  0  0  0  0  0  0  0
   60.8656   85.6186   35.1468 H   0  0  0  0  0  0  0  0  0  0  0  0
   61.5301   86.4613   33.7063 H   0  0  0  0  0  0  0  0  0  0  0  0
   59.8272   85.8897   33.7063 H   0  0  0  0  0  0  0  0  0  0  0  0
   60.8400   82.9785   34.9937 H   0  0  0  0  0  0  0  0  0  0  0  0
   59.4123   83.6763   34.0822 H   0  0  0  0  0  0  0  0  0  0  0  0
   61.4045   81.6518   32.9625 H   0  0  0  0  0  0  0  0  0  0  0  0
   59.7467   81.2821   33.5699 H   0  0  0  0  0  0  0  0  0  0  0  0
   60.1199   82.1969   29.1323 H   0  0  0  0  0  0  0  0  0  0  0  0
   59.0866   80.4940   27.6569 H   0  0  0  0  0  0  0  0  0  0  0  0
  1  2  1  0
  2  3  2  0
  3  4  1  0
  4  5  2  0
  5  6  1  0
  6  7  2  0
  7  8  1  0
  8  9  2  0
  8 10  1  0
 10 11  1  0
 11 12  2  0
 11 13  1  0
 13 14  1  0
 14 15  1  0
 15 16  2  0
 16 17  1  0
 17 18  1  0
 18 19  1  0
 19 20  1  0
 20 21  1  0
 21 22  1  0
 21 23  1  0
 23 24  1  0
 17 25  2  0
 25 26  1  0
  7  2  1  0
 26 14  2  0
 24 18  1  0
  1 27  1  0
  1 28  1  0
  1 29  1  0
  3 30  1  0
  4 31  1  0
  5 32  1  0
  6 33  1  0
 10 34  1  0
 13 35  1  0
 13 36  1  0
 15 37  1  0
 16 38  1  0
 19 39  1  0
 19 40  1  0
 20 41  1  0
 20 42  1  0
 22 43  1  0
 22 44  1  0
 22 45  1  0
 23 46  1  0
 23 47  1  0
 24 48  1  0
 24 49  1  0
 25 50  1  0
 26 51  1  0
M  END
>  <meeko>  (1) 
{"is_sidechain": false}

>  <smiles>  (1) 
Cc1ccccc1C(=O)NC(=O)Cc1ccc(N2CCN(C)CC2)cc1

>  <vina_score>  (1) 
-8.632

>  <job_id>  (1) 
16fee41d5756a7cf

$$$$
