
     RDKit          3D

 45 47  0  0  0  0  0  0  0  0999 V2000
   61.7000   83.2990   31.0200 C   0  0  0  0  0  0  0  0  0  0  0  0
   60.3870   83.0160   31.4840 O   0  0  0  0  0  0  0  0  0  0  0  0
   59.7540   81.9400   30.9280 C   0  0  0  0  0  0  0  0  0  0  0  0
   59.7500   81.9160   29.5350 C   0  0  0  0  0  0  0  0  0  0  0  0
   59.1360   80.8680   28.8360 C   0  0  0  0  0  0  0  0  0  0  0  0
   58.5140   79.8170   29.5100 C   0  0  0  0  0  0  0  0  0  0  0  0
   57.8750   78.7470   28.8760 N   0  0  0  0  0  0  0  0  0  0  0  0
   56.5460   78.3580   28.7350 C   0  0  0  0  0  0  0  0  0  0  0  0
   55.9370   77.5590   29.6210 N   0  0  0  0  0  0  0  0  0  0  0  0
   54.6460   77.2560   29.4020 C   0  0  0  0  0  0  0  0  0  0  0  0
   53.9360   77.7140   28.3240 C   0  0  0  0  0  0  0  0  0  0  0  0
   54.6420   78.5140   27.4570 C   0  0  0  0  0  0  0  0  0  0  0  0
   54.0190   79.0920   26.2720 C   0  0  0  0  0  0  0  0  0  0  0  0
   53.4400   78.4470   25.1980 C   0  0  0  0  0  0  0  0  0  0  0  0
   52.9370   79.3310   24.2920 N   0  0  0  0  0  0  0  0  0  0  0  0
   53.1780   80.5290   24.7820 C   0  0  0  0  0  0  0  0  0  0  0  0
   52.7530   81.7840   24.1110 C   0  0  0  0  0  0  0  0  0  0  0  0
   53.8790   80.4430   25.9750 N   0  0  0  0  0  0  0  0  0  0  0  0
   54.4130   81.5440   26.7800 C   0  0  0  0  0  0  0  0  0  0  0  0
   53.3100   82.4820   27.2700 C   0  0  0  0  0  0  0  0  0  0  0  0
   55.5570   82.3150   26.1150 C   0  0  0  0  0  0  0  0  0  0  0  0
   55.9330   78.8480   27.6460 N   0  0  0  0  0  0  0  0  0  0  0  0
   58.5220   79.8570   30.9140 C   0  0  0  0  0  0  0  0  0  0  0  0
   59.1340   80.9030   31.6190 C   0  0  0  0  0  0  0  0  0  0  0  0
   62.3698   83.4434   31.8805 H   0  0  0  0  0  0  0  0  0  0  0  0
   62.0625   82.4584   30.4102 H   0  0  0  0  0  0  0  0  0  0  0  0
   61.6840   84.2143   30.4102 H   0  0  0  0  0  0  0  0  0  0  0  0
   60.2351   82.7302   28.9766 H   0  0  0  0  0  0  0  0  0  0  0  0
   59.1447   80.8743   27.7361 H   0  0  0  0  0  0  0  0  0  0  0  0
   58.4540   78.1260   28.3310 H   0  0  0  0  0  0  0  0  0  0  0  0
   54.1329   76.6063   30.1263 H   0  0  0  0  0  0  0  0  0  0  0  0
   52.8778   77.4602   28.1636 H   0  0  0  0  0  0  0  0  0  0  0  0
   53.3908   77.3537   25.0873 H   0  0  0  0  0  0  0  0  0  0  0  0
   52.4978   82.5376   24.8706 H   0  0  0  0  0  0  0  0  0  0  0  0
   53.5739   82.1600   23.4827 H   0  0  0  0  0  0  0  0  0  0  0  0
   51.8725   81.5839   23.4827 H   0  0  0  0  0  0  0  0  0  0  0  0
   54.8626   81.0596   27.6593 H   0  0  0  0  0  0  0  0  0  0  0  0
   53.2987   82.4916   28.3699 H   0  0  0  0  0  0  0  0  0  0  0  0
   53.5006   83.4989   26.8964 H   0  0  0  0  0  0  0  0  0  0  0  0
   52.3369   82.1305   26.8964 H   0  0  0  0  0  0  0  0  0  0  0  0
   56.2043   82.7513   26.8900 H   0  0  0  0  0  0  0  0  0  0  0  0
   56.1461   81.6290   25.4887 H   0  0  0  0  0  0  0  0  0  0  0  0
   55.1422   83.1185   25.4887 H   0  0  0  0  0  0  0  0  0  0  0  0
   58.0351   79.0460   31.4754 H   0  0  0  0  0  0  0  0  0  0  0  0
   59.1242   80.9041   32.7190 H   0  0  0  0  0  0  0  0  0  0  0  0
  1  2  1  0
  2  3  1  0
  3  4  1  0
  4  5  2  0
  5  6  1  0
  6  7  1  0
  7  8  1  0
  8  9  2  0
  9 10  1  0
 10 11  2  0
 11 12  1  0
 12 13  1  0
 13 14  2  0
 14 15  1  0
 15 16  2  0
 16 17  1  0
 16 18  1  0
 18 19  1  0
 19 20  1  0
 19 21  1  0
 12 22  2  0
  6 23  2  0
 23 24  1  0
 24  3  2  0
 22  8  1  0
 18 13  1  0
  1 25  1  0
  1 26  1  0
  1 27  1  0
  4 28  1  0
  5 29  1  0
  7 30  1  0
 10 31  1  0
 11 32  1  0
 14 33  1  0
 17 34  1  0
 17 35  1  0
 17 36  1  0
 19 37  1  0
 20 38  1  0
 20 39  1  0
 20 40  1  0
 21 41  1  0
 21 42  1  0
 21 43  1  0
 23 44  1  0
 24 45  1  0
M  END
>  <meeko>  (1) 
{"is_sidechain": false}

>  <smiles>  (1) 
COc1ccc(Nc2nccc(-c3cnc(C)n3C(C)C)n2)cc1

>  <vina_score>  (1) 
-8.298

>  <job_id>  (1) 
18678884deec7ff1

$$$$
