
     RDKit          3D

 71 75  0  0  0  0  0  0  0  0999 V2000
   51.7990   82.9270   22.3950 C   0  0  0  0  0  0  0  0  0  0  0  0
   52.3130   81.8140   23.2350 C   0  0  0  0  0  0  0  0  0  0  0  0
   52.3350   80.5520   22.8650 N   0  0  0  0  0  0  0  0  0  0  0  0
   52.8800   79.8550   23.9130 C   0  0  0  0  0  0  0  0  0  0  0  0
   53.1390   78.4850   24.0560 C   0  0  0  0  0  0  0  0  0  0  0  0
   52.8470   77.6190   23.0750 F   0  0  0  0  0  0  0  0  0  0  0  0
   53.7080   78.0030   25.2370 C   0  0  0  0  0  0  0  0  0  0  0  0
   54.0330   78.8580   26.3040 C   0  0  0  0  0  0  0  0  0  0  0  0
   54.6390   78.3080   27.5370 C   0  0  0  0  0  0  0  0  0  0  0  0
   55.9570   78.5950   27.7100 N   0  0  0  0  0  0  0  0  0  0  0  0
   56.5700   78.1450   28.8210 C   0  0  0  0  0  0  0  0  0  0  0  0
   57.9230   78.4600   28.9190 N   0  0  0  0  0  0  0  0  0  0  0  0
   58.4750   79.6130   29.4990 C   0  0  0  0  0  0  0  0  0  0  0  0
   58.9660   80.5990   28.6460 C   0  0  0  0  0  0  0  0  0  0  0  0
   59.5280   81.7580   29.1790 C   0  0  0  0  0  0  0  0  0  0  0  0
   59.5940   81.9200   30.5620 C   0  0  0  0  0  0  0  0  0  0  0  0
   59.0800   80.8950   31.3490 C   0  0  0  0  0  0  0  0  0  0  0  0
   58.5330   79.7650   30.8370 N   0  0  0  0  0  0  0  0  0  0  0  0
   59.1540   80.9920   32.8450 C   0  0  0  0  0  0  0  0  0  0  0  0
   59.1160   82.4490   33.2840 C   0  0  0  0  0  0  0  0  0  0  0  0
   60.1560   83.2380   32.6200 N   0  0  0  0  0  0  0  0  0  0  0  0
   60.6770   84.3290   33.3250 C   0  0  0  0  0  0  0  0  0  0  0  0
   60.0650   85.4020   33.3770 O   0  0  0  0  0  0  0  0  0  0  0  0
   62.0230   84.1540   34.0840 C   0  0  0  0  0  0  0  0  0  0  0  0
   61.7370   83.8580   35.5630 C   0  0  0  0  0  0  0  0  0  0  0  0
   62.8960   83.1070   33.4830 N   0  0  0  0  0  0  0  0  0  0  0  0
   62.9750   81.9020   34.3060 C   0  0  0  0  0  0  0  0  0  0  0  0
   64.2440   83.5710   33.1470 C   0  0  0  0  0  0  0  0  0  0  0  0
   60.2060   83.1560   31.1610 C   0  0  0  0  0  0  0  0  0  0  0  0
   55.9580   77.3830   29.7410 N   0  0  0  0  0  0  0  0  0  0  0  0
   54.6560   77.1070   29.5460 C   0  0  0  0  0  0  0  0  0  0  0  0
   53.9450   77.5480   28.4600 C   0  0  0  0  0  0  0  0  0  0  0  0
   52.6530   77.2240   28.3180 F   0  0  0  0  0  0  0  0  0  0  0  0
   53.7800   80.2410   26.1550 C   0  0  0  0  0  0  0  0  0  0  0  0
   53.2040   80.7140   24.9620 C   0  0  0  0  0  0  0  0  0  0  0  0
   52.8330   81.9660   24.5070 N   0  0  0  0  0  0  0  0  0  0  0  0
   52.9550   83.2340   25.2260 C   0  0  0  0  0  0  0  0  0  0  0  0
   54.4110   83.6720   25.3940 C   0  0  0  0  0  0  0  0  0  0  0  0
   52.1950   83.2320   26.5530 C   0  0  0  0  0  0  0  0  0  0  0  0
   51.4264   83.7338   23.0433 H   0  0  0  0  0  0  0  0  0  0  0  0
   52.6105   83.3121   21.7600 H   0  0  0  0  0  0  0  0  0  0  0  0
   50.9797   82.5590   21.7600 H   0  0  0  0  0  0  0  0  0  0  0  0
   53.9070   76.9256   25.3346 H   0  0  0  0  0  0  0  0  0  0  0  0
   58.3420   78.2450   28.0250 H   0  0  0  0  0  0  0  0  0  0  0  0
   58.9104   80.4634   27.5558 H   0  0  0  0  0  0  0  0  0  0  0  0
   59.9175   82.5409   28.5116 H   0  0  0  0  0  0  0  0  0  0  0  0
   58.2992   80.4581   33.2857 H   0  0  0  0  0  0  0  0  0  0  0  0
   60.0975   80.5407   33.1859 H   0  0  0  0  0  0  0  0  0  0  0  0
   58.1320   82.8720   33.0335 H   0  0  0  0  0  0  0  0  0  0  0  0
   59.2944   82.4869   34.3688 H   0  0  0  0  0  0  0  0  0  0  0  0
   62.5837   85.0964   33.9974 H   0  0  0  0  0  0  0  0  0  0  0  0
   62.3629   84.5058   36.1943 H   0  0  0  0  0  0  0  0  0  0  0  0
   60.6757   84.0521   35.7772 H   0  0  0  0  0  0  0  0  0  0  0  0
   61.9675   82.8040   35.7772 H   0  0  0  0  0  0  0  0  0  0  0  0
   62.9566   82.1825   35.3695 H   0  0  0  0  0  0  0  0  0  0  0  0
   62.1177   81.2495   34.0840 H   0  0  0  0  0  0  0  0  0  0  0  0
   63.9101   81.3670   34.0840 H   0  0  0  0  0  0  0  0  0  0  0  0
   64.8064   83.7646   34.0723 H   0  0  0  0  0  0  0  0  0  0  0  0
   64.7613   82.7992   32.5582 H   0  0  0  0  0  0  0  0  0  0  0  0
   64.1767   84.4977   32.5582 H   0  0  0  0  0  0  0  0  0  0  0  0
   59.6748   84.0289   30.7539 H   0  0  0  0  0  0  0  0  0  0  0  0
   61.2732   83.1240   30.8962 H   0  0  0  0  0  0  0  0  0  0  0  0
   54.1346   76.4955   30.2971 H   0  0  0  0  0  0  0  0  0  0  0  0
   54.0315   80.9413   26.9652 H   0  0  0  0  0  0  0  0  0  0  0  0
   52.4710   83.9921   24.5927 H   0  0  0  0  0  0  0  0  0  0  0  0
   54.6509   83.7442   26.4651 H   0  0  0  0  0  0  0  0  0  0  0  0
   55.0733   82.9333   24.9189 H   0  0  0  0  0  0  0  0  0  0  0  0
   54.5558   84.6535   24.9189 H   0  0  0  0  0  0  0  0  0  0  0  0
   52.9127   83.2339   27.3866 H   0  0  0  0  0  0  0  0  0  0  0  0
   51.5604   84.1285   26.6135 H   0  0  0  0  0  0  0  0  0  0  0  0
   51.5652   82.3322   26.6135 H   0  0  0  0  0  0  0  0  0  0  0  0
  1  2  1  0
  2  3  2  0
  3  4  1  0
  4  5  2  0
  5  6  1  0
  5  7  1  0
  7  8  2  0
  8  9  1  0
  9 10  2  0
 10 11  1  0
 11 12  1  0
 12 13  1  0
 13 14  1  0
 14 15  2  0
 15 16  1  0
 16 17  2  0
 17 18  1  0
 17 19  1  0
 19 20  1  0
 20 21  1  0
 21 22  1  0
 22 23  2  0
 22 24  1  0
 24 25  1  0
 24 26  1  0
 26 27  1  0
 26 28  1  0
 21 29  1  0
 11 30  2  0
 30 31  1  0
 31 32  2  0
 32 33  1  0
  8 34  1  0
 34 35  2  0
 35 36  1  0
 36 37  1  0
 37 38  1  0
 37 39  1  0
 36  2  1  0
 35  4  1  0
 32  9  1  0
 18 13  2  0
 29 16  1  0
  1 40  1  0
  1 41  1  0
  1 42  1  0
  7 43  1  0
 12 44  1  0
 14 45  1  0
 15 46  1  0
 19 47  1  0
 19 48  1  0
 20 49  1  0
 20 50  1  0
 24 51  1  0
 25 52  1  0
 25 53  1  0
 25 54  1  0
 27 55  1  0
 27 56  1  0
 27 57  1  0
 28 58  1  0
 28 59  1  0
 28 60  1  0
 29 61  1  0
 29 62  1  0
 31 63  1  0
 34 64  1  0
 37 65  1  0
 38 66  1  0
 38 67  1  0
 38 68  1  0
 39 69  1  0
 39 70  1  0
 39 71  1  0
M  END
>  <meeko>  (1) 
{"is_sidechain": false}

>  <smiles>  (1) 
Cc1nc2c(F)cc(-c3nc(Nc4ccc5c(n4)CCN(C(=O)C(C)N(C)C)C5)ncc3F)cc2n1C(C)C

>  <vina_score>  (1) 
-8.380

>  <job_id>  (1) 
188e34c37543c30f

$$$$
