
     RDKit          3D

 41 42  0  0  0  0  0  0  0  0999 V2000
   52.6580   74.9820   26.5180 C   0  0  0  0  0  0  0  0  0  0  0  0
   52.4020   75.9480   27.6450 C   0  0  0  0  0  0  0  0  0  0  0  0
   51.2700   76.1070   28.1020 O   0  0  0  0  0  0  0  0  0  0  0  0
   53.5470   76.7180   28.2130 C   0  0  0  0  0  0  0  0  0  0  0  0
   53.6710   78.0730   27.8830 C   0  0  0  0  0  0  0  0  0  0  0  0
   54.7290   78.8320   28.3940 C   0  0  0  0  0  0  0  0  0  0  0  0
   55.6800   78.2520   29.2410 C   0  0  0  0  0  0  0  0  0  0  0  0
   56.7120   79.0860   29.7180 N   0  0  0  0  0  0  0  0  0  0  0  0
   57.8840   79.4240   29.0650 C   0  0  0  0  0  0  0  0  0  0  0  0
   58.2190   79.1080   27.9310 O   0  0  0  0  0  0  0  0  0  0  0  0
   58.8020   80.2930   29.8490 C   0  0  0  0  0  0  0  0  0  0  0  0
   59.7010   81.1630   29.2140 C   0  0  0  0  0  0  0  0  0  0  0  0
   60.5500   81.9710   29.9750 C   0  0  0  0  0  0  0  0  0  0  0  0
   60.4940   81.9210   31.3680 C   0  0  0  0  0  0  0  0  0  0  0  0
   59.5710   81.0750   31.9960 C   0  0  0  0  0  0  0  0  0  0  0  0
   59.5260   80.9890   33.4700 C   0  0  0  0  0  0  0  0  0  0  0  0
   58.4900   81.3570   34.0200 O   0  0  0  0  0  0  0  0  0  0  0  0
   60.6310   80.4810   34.1520 N   0  0  0  0  0  0  0  0  0  0  0  0
   60.5250   80.3280   35.5920 C   0  0  0  0  0  0  0  0  0  0  0  0
   61.9790   80.4240   33.6030 C   0  0  0  0  0  0  0  0  0  0  0  0
   58.7330   80.2510   31.2440 C   0  0  0  0  0  0  0  0  0  0  0  0
   55.5510   76.9020   29.5710 C   0  0  0  0  0  0  0  0  0  0  0  0
   54.4930   76.1370   29.0620 C   0  0  0  0  0  0  0  0  0  0  0  0
   52.9191   73.9968   26.9317 H   0  0  0  0  0  0  0  0  0  0  0  0
   51.7528   74.8918   25.8996 H   0  0  0  0  0  0  0  0  0  0  0  0
   53.4891   75.3520   25.8996 H   0  0  0  0  0  0  0  0  0  0  0  0
   52.9319   78.5435   27.2179 H   0  0  0  0  0  0  0  0  0  0  0  0
   54.8143   79.8958   28.1273 H   0  0  0  0  0  0  0  0  0  0  0  0
   56.5380   79.5360   30.6080 H   0  0  0  0  0  0  0  0  0  0  0  0
   59.7376   81.2092   28.1156 H   0  0  0  0  0  0  0  0  0  0  0  0
   61.2615   82.6456   29.4763 H   0  0  0  0  0  0  0  0  0  0  0  0
   61.1718   82.5433   31.9707 H   0  0  0  0  0  0  0  0  0  0  0  0
   61.0840   81.1348   36.0886 H   0  0  0  0  0  0  0  0  0  0  0  0
   59.4671   80.3781   35.8892 H   0  0  0  0  0  0  0  0  0  0  0  0
   60.9436   79.3552   35.8892 H   0  0  0  0  0  0  0  0  0  0  0  0
   62.7088   80.3931   34.4254 H   0  0  0  0  0  0  0  0  0  0  0  0
   62.0851   79.5206   32.9845 H   0  0  0  0  0  0  0  0  0  0  0  0
   62.1610   81.3153   32.9845 H   0  0  0  0  0  0  0  0  0  0  0  0
   58.0246   79.5746   31.7446 H   0  0  0  0  0  0  0  0  0  0  0  0
   56.2887   76.4329   30.2387 H   0  0  0  0  0  0  0  0  0  0  0  0
   54.4066   75.0741   29.3320 H   0  0  0  0  0  0  0  0  0  0  0  0
  1  2  1  0
  2  3  2  0
  2  4  1  0
  4  5  1  0
  5  6  2  0
  6  7  1  0
  7  8  1  0
  8  9  1  0
  9 10  2  0
  9 11  1  0
 11 12  1  0
 12 13  2  0
 13 14  1  0
 14 15  2  0
 15 16  1  0
 16 17  2  0
 16 18  1  0
 18 19  1  0
 18 20  1  0
 15 21  1  0
  7 22  2  0
 22 23  1  0
 23  4  2  0
 21 11  2  0
  1 24  1  0
  1 25  1  0
  1 26  1  0
  5 27  1  0
  6 28  1  0
  8 29  1  0
 12 30  1  0
 13 31  1  0
 14 32  1  0
 19 33  1  0
 19 34  1  0
 19 35  1  0
 20 36  1  0
 20 37  1  0
 20 38  1  0
 21 39  1  0
 22 40  1  0
 23 41  1  0
M  END
>  <meeko>  (1) 
{"is_sidechain": false}

>  <smiles>  (1) 
CC(=O)c1ccc(NC(=O)c2cccc(C(=O)N(C)C)c2)cc1

>  <vina_score>  (1) 
-8.187

>  <job_id>  (1) 
18a2b752252d9daf

$$$$
