
     RDKit          3D

 46 48  0  0  0  0  0  0  0  0999 V2000
   52.9350   80.9440   23.1970 C   0  0  0  0  0  0  0  0  0  0  0  0
   53.0820   81.4480   24.6070 C   0  0  0  0  0  0  0  0  0  0  0  0
   52.9200   82.8220   24.8540 C   0  0  0  0  0  0  0  0  0  0  0  0
   53.0350   83.3380   26.1450 C   0  0  0  0  0  0  0  0  0  0  0  0
   53.3100   82.4900   27.2100 C   0  0  0  0  0  0  0  0  0  0  0  0
   53.4730   81.1240   26.9850 C   0  0  0  0  0  0  0  0  0  0  0  0
   53.3650   80.5870   25.6890 C   0  0  0  0  0  0  0  0  0  0  0  0
   53.6100   79.1010   25.5110 C   0  0  0  0  0  0  0  0  0  0  0  0
   53.9510   78.3730   26.8070 C   0  0  0  0  0  0  0  0  0  0  0  0
   53.1500   77.5910   27.3090 O   0  0  0  0  0  0  0  0  0  0  0  0
   55.2330   78.6220   27.2700 N   0  0  0  0  0  0  0  0  0  0  0  0
   55.6930   78.2560   28.5200 C   0  0  0  0  0  0  0  0  0  0  0  0
   55.3520   77.2580   29.1420 O   0  0  0  0  0  0  0  0  0  0  0  0
   56.8010   79.0980   29.0510 C   0  0  0  0  0  0  0  0  0  0  0  0
   57.5730   79.9180   28.2240 C   0  0  0  0  0  0  0  0  0  0  0  0
   58.6110   80.6850   28.7700 C   0  0  0  0  0  0  0  0  0  0  0  0
   58.9090   80.6760   30.1430 C   0  0  0  0  0  0  0  0  0  0  0  0
   59.9330   81.4290   30.6680 N   0  0  0  0  0  0  0  0  0  0  0  0
   60.3360   81.3980   32.0730 C   0  0  0  0  0  0  0  0  0  0  0  0
   61.2400   82.6190   32.2250 C   0  0  0  0  0  0  0  0  0  0  0  0
   61.8660   82.7570   30.8490 C   0  0  0  0  0  0  0  0  0  0  0  0
   60.7130   82.4050   29.9130 C   0  0  0  0  0  0  0  0  0  0  0  0
   58.1030   79.8570   30.9490 C   0  0  0  0  0  0  0  0  0  0  0  0
   57.0600   79.0830   30.4210 C   0  0  0  0  0  0  0  0  0  0  0  0
   52.6270   79.8881   23.2153 H   0  0  0  0  0  0  0  0  0  0  0  0
   52.1730   81.5392   22.6724 H   0  0  0  0  0  0  0  0  0  0  0  0
   53.8975   81.0362   22.6724 H   0  0  0  0  0  0  0  0  0  0  0  0
   52.6992   83.5007   24.0169 H   0  0  0  0  0  0  0  0  0  0  0  0
   52.9079   84.4166   26.3195 H   0  0  0  0  0  0  0  0  0  0  0  0
   53.3990   82.8954   28.2287 H   0  0  0  0  0  0  0  0  0  0  0  0
   53.6890   80.4567   27.8324 H   0  0  0  0  0  0  0  0  0  0  0  0
   52.7013   78.6481   25.0878 H   0  0  0  0  0  0  0  0  0  0  0  0
   54.4810   78.9975   24.8471 H   0  0  0  0  0  0  0  0  0  0  0  0
   55.7330   79.3670   26.8080 H   0  0  0  0  0  0  0  0  0  0  0  0
   57.3660   79.9615   27.1445 H   0  0  0  0  0  0  0  0  0  0  0  0
   59.2135   81.3162   28.1002 H   0  0  0  0  0  0  0  0  0  0  0  0
   59.4594   81.4759   32.7330 H   0  0  0  0  0  0  0  0  0  0  0  0
   60.8412   80.4603   32.3479 H   0  0  0  0  0  0  0  0  0  0  0  0
   60.6550   83.5137   32.4842 H   0  0  0  0  0  0  0  0  0  0  0  0
   61.9827   82.5098   33.0290 H   0  0  0  0  0  0  0  0  0  0  0  0
   62.2171   83.7849   30.6752 H   0  0  0  0  0  0  0  0  0  0  0  0
   62.7504   82.1183   30.7081 H   0  0  0  0  0  0  0  0  0  0  0  0
   60.1093   83.2955   29.6838 H   0  0  0  0  0  0  0  0  0  0  0  0
   61.0574   82.0145   28.9440 H   0  0  0  0  0  0  0  0  0  0  0  0
   58.2961   79.8212   32.0313 H   0  0  0  0  0  0  0  0  0  0  0  0
   56.4446   78.4625   31.0891 H   0  0  0  0  0  0  0  0  0  0  0  0
  1  2  1  0
  2  3  2  0
  3  4  1  0
  4  5  2  0
  5  6  1  0
  6  7  2  0
  7  8  1  0
  8  9  1  0
  9 10  2  0
  9 11  1  0
 11 12  1  0
 12 13  2  0
 12 14  1  0
 14 15  1  0
 15 16  2  0
 16 17  1  0
 17 18  1  0
 18 19  1  0
 19 20  1  0
 20 21  1  0
 21 22  1  0
 17 23  2  0
 23 24  1  0
  7  2  1  0
 24 14  2  0
 22 18  1  0
  1 25  1  0
  1 26  1  0
  1 27  1  0
  3 28  1  0
  4 29  1  0
  5 30  1  0
  6 31  1  0
  8 32  1  0
  8 33  1  0
 11 34  1  0
 15 35  1  0
 16 36  1  0
 19 37  1  0
 19 38  1  0
 20 39  1  0
 20 40  1  0
 21 41  1  0
 21 42  1  0
 22 43  1  0
 22 44  1  0
 23 45  1  0
 24 46  1  0
M  END
>  <meeko>  (1) 
{"is_sidechain": false}

>  <smiles>  (1) 
Cc1ccccc1CC(=O)NC(=O)c1ccc(N2CCCC2)cc1

>  <vina_score>  (1) 
-8.379

>  <job_id>  (1) 
18a917068f11ba1f

$$$$
