
     RDKit          3D

 55 59  0  0  0  0  0  0  0  0999 V2000
   62.1960   85.0060   31.0200 C   0  0  0  0  0  0  0  0  0  0  0  0
   61.7730   83.5590   31.0220 C   0  0  0  0  0  0  0  0  0  0  0  0
   62.5880   82.6680   31.2350 O   0  0  0  0  0  0  0  0  0  0  0  0
   60.4280   83.4060   30.7370 N   0  0  0  0  0  0  0  0  0  0  0  0
   59.6980   82.2040   30.6550 C   0  0  0  0  0  0  0  0  0  0  0  0
   59.6920   81.3680   29.5420 C   0  0  0  0  0  0  0  0  0  0  0  0
   58.9350   80.1860   29.5480 C   0  0  0  0  0  0  0  0  0  0  0  0
   58.1650   79.8070   30.6570 C   0  0  0  0  0  0  0  0  0  0  0  0
   57.4420   78.6120   30.5920 N   0  0  0  0  0  0  0  0  0  0  0  0
   56.3440   78.1830   29.8540 C   0  0  0  0  0  0  0  0  0  0  0  0
   55.9120   76.9040   29.8950 N   0  0  0  0  0  0  0  0  0  0  0  0
   54.8440   76.5570   29.1440 C   0  0  0  0  0  0  0  0  0  0  0  0
   54.1890   77.4540   28.3600 C   0  0  0  0  0  0  0  0  0  0  0  0
   54.6990   78.7350   28.3990 C   0  0  0  0  0  0  0  0  0  0  0  0
   55.7670   79.1350   29.0980 N   0  0  0  0  0  0  0  0  0  0  0  0
   53.9400   79.5620   27.5410 N   0  0  0  0  0  0  0  0  0  0  0  0
   54.3170   80.9510   27.3230 C   0  0  2  0  0  0  0  0  0  0  0  0
   53.2050   81.9020   26.8810 C   0  0  0  0  0  0  0  0  0  0  0  0
   53.9850   83.1550   26.5170 C   0  0  0  0  0  0  0  0  0  0  0  0
   55.2120   82.6320   25.7710 C   0  0  0  0  0  0  0  0  0  0  0  0
   55.4370   81.1860   26.2710 C   0  0  2  0  0  0  0  0  0  0  0  0
   55.4360   80.2040   25.0980 C   0  0  0  0  0  0  0  0  0  0  0  0
   56.7230   81.1140   26.8950 O   0  0  0  0  0  0  0  0  0  0  0  0
   52.9690   78.8220   26.8760 C   0  0  0  0  0  0  0  0  0  0  0  0
   52.1810   79.1670   26.0130 O   0  0  0  0  0  0  0  0  0  0  0  0
   53.0490   77.4120   27.4150 C   0  0  0  0  0  0  0  0  0  0  0  0
   52.7510   76.2200   26.5450 C   0  0  0  0  0  0  0  0  0  0  0  0
   51.8100   76.5940   27.6630 C   0  0  0  0  0  0  0  0  0  0  0  0
   58.1850   80.6520   31.7680 C   0  0  0  0  0  0  0  0  0  0  0  0
   58.9390   81.8350   31.7680 C   0  0  0  0  0  0  0  0  0  0  0  0
   62.2993   85.3592   32.0566 H   0  0  0  0  0  0  0  0  0  0  0  0
   63.1608   85.1053   30.5010 H   0  0  0  0  0  0  0  0  0  0  0  0
   61.4366   85.6093   30.5010 H   0  0  0  0  0  0  0  0  0  0  0  0
   59.9020   84.2530   30.5580 H   0  0  0  0  0  0  0  0  0  0  0  0
   60.2833   81.6349   28.6536 H   0  0  0  0  0  0  0  0  0  0  0  0
   58.9461   79.5392   28.6583 H   0  0  0  0  0  0  0  0  0  0  0  0
   57.7820   77.8530   31.1650 H   0  0  0  0  0  0  0  0  0  0  0  0
   54.4929   75.5148   29.1676 H   0  0  0  0  0  0  0  0  0  0  0  0
   54.6505   81.1778   28.3464 H   0  0  0  0  0  0  0  0  0  0  0  0
   52.6607   81.5037   26.0120 H   0  0  0  0  0  0  0  0  0  0  0  0
   52.4332   82.0676   27.6471 H   0  0  0  0  0  0  0  0  0  0  0  0
   53.3862   83.8125   25.8696 H   0  0  0  0  0  0  0  0  0  0  0  0
   54.2533   83.7544   27.3994 H   0  0  0  0  0  0  0  0  0  0  0  0
   55.0293   82.6363   24.6863 H   0  0  0  0  0  0  0  0  0  0  0  0
   56.0937   83.2626   25.9580 H   0  0  0  0  0  0  0  0  0  0  0  0
   55.4350   79.1734   25.4826 H   0  0  0  0  0  0  0  0  0  0  0  0
   54.5380   80.3672   24.4840 H   0  0  0  0  0  0  0  0  0  0  0  0
   56.3343   80.3653   24.4840 H   0  0  0  0  0  0  0  0  0  0  0  0
   57.1070   80.2440   26.6650 H   0  0  0  0  0  0  0  0  0  0  0  0
   52.4467   76.3653   25.4980 H   0  0  0  0  0  0  0  0  0  0  0  0
   53.2972   75.3089   26.2595 H   0  0  0  0  0  0  0  0  0  0  0  0
   50.8192   77.0121   27.4315 H   0  0  0  0  0  0  0  0  0  0  0  0
   51.3852   76.0687   28.5311 H   0  0  0  0  0  0  0  0  0  0  0  0
   57.5988   80.3854   32.6598 H   0  0  0  0  0  0  0  0  0  0  0  0
   58.9324   82.4817   32.6578 H   0  0  0  0  0  0  0  0  0  0  0  0
  1  2  1  0
  2  3  2  0
  2  4  1  0
  4  5  1  0
  5  6  1  0
  6  7  2  0
  7  8  1  0
  8  9  1  0
  9 10  1  0
 10 11  2  0
 11 12  1  0
 12 13  2  0
 13 14  1  0
 14 15  2  0
 14 16  1  0
 16 17  1  0
 17 18  1  0
 18 19  1  0
 19 20  1  0
 20 21  1  0
 21 22  1  0
 21 23  1  1
 16 24  1  0
 24 25  2  0
 24 26  1  0
 26 27  1  0
 27 28  1  0
  8 29  2  0
 29 30  1  0
 30  5  2  0
 15 10  1  0
 21 17  1  0
 28 26  1  0
 26 13  1  0
  1 31  1  0
  1 32  1  0
  1 33  1  0
  4 34  1  0
  6 35  1  0
  7 36  1  0
  9 37  1  0
 12 38  1  0
 17 39  1  1
 18 40  1  0
 18 41  1  0
 19 42  1  0
 19 43  1  0
 20 44  1  0
 20 45  1  0
 22 46  1  0
 22 47  1  0
 22 48  1  0
 23 49  1  0
 27 50  1  0
 27 51  1  0
 28 52  1  0
 28 53  1  0
 29 54  1  0
 30 55  1  0
M  END
>  <meeko>  (1) 
{"is_sidechain": false}

>  <smiles>  (1) 
CC(=O)Nc1ccc(Nc2ncc3c(n2)N([C@@H]2CCC[C@@]2(C)O)C(=O)C32CC2)cc1

>  <vina_score>  (1) 
-8.727

>  <job_id>  (1) 
19333ef2e5198e41

$$$$
