
     RDKit          3D

 48 51  0  0  0  0  0  0  0  0999 V2000
   54.0610   78.6230   24.4880 O   0  0  0  0  0  0  0  0  0  0  0  0
   53.4480   79.3350   25.2680 C   0  0  0  0  0  0  0  0  0  0  0  0
   53.1360   79.1110   26.5950 N   0  0  0  0  0  0  0  0  0  0  0  0
   53.4480   77.9780   27.3660 C   0  0  0  0  0  0  0  0  0  0  0  0
   54.4470   78.1200   28.3390 C   0  0  0  0  0  0  0  0  0  0  0  0
   54.8180   77.0400   29.1440 C   0  0  0  0  0  0  0  0  0  0  0  0
   54.1930   75.8060   28.9830 C   0  0  0  0  0  0  0  0  0  0  0  0
   53.1990   75.6550   28.0200 C   0  0  0  0  0  0  0  0  0  0  0  0
   52.8270   76.7380   27.2140 C   0  0  0  0  0  0  0  0  0  0  0  0
   52.9900   80.7140   24.7930 C   0  0  0  0  0  0  0  0  0  0  0  0
   51.6440   80.6920   23.8000 S   0  0  0  0  0  0  0  0  0  0  0  0
   53.6920   81.8250   25.2670 N   0  0  0  0  0  0  0  0  0  0  0  0
   54.9360   81.6730   26.0420 C   0  0  0  0  0  0  0  0  0  0  0  0
   55.8090   82.9370   26.0150 C   0  0  0  0  0  0  0  0  0  0  0  0
   55.0930   84.1200   26.5290 N   0  0  0  0  0  0  0  0  0  0  0  0
   55.7800   85.2910   26.1440 N   0  0  0  0  0  0  0  0  0  0  0  0
   55.6530   86.4500   26.8350 C   0  0  0  0  0  0  0  0  0  0  0  0
   54.7380   87.4890   26.5390 C   0  0  0  0  0  0  0  0  0  0  0  0
   54.9700   88.4440   27.4960 C   0  0  0  0  0  0  0  0  0  0  0  0
   54.2620   89.8060   27.6440 C   0  0  0  0  0  0  0  0  0  0  0  0
   52.9980   89.8860   28.4590 C   0  0  0  0  0  0  0  0  0  0  0  0
   52.9350   90.0150   26.9660 C   0  0  0  0  0  0  0  0  0  0  0  0
   55.9750   87.9610   28.2760 N   0  0  0  0  0  0  0  0  0  0  0  0
   56.4070   86.7450   27.8990 N   0  0  0  0  0  0  0  0  0  0  0  0
   53.6890   84.1900   26.0780 C   0  0  0  0  0  0  0  0  0  0  0  0
   53.3110   83.2120   24.9520 C   0  0  0  0  0  0  0  0  0  0  0  0
   52.5980   79.8390   27.0530 H   0  0  0  0  0  0  0  0  0  0  0  0
   54.9443   79.0924   28.4702 H   0  0  0  0  0  0  0  0  0  0  0  0
   55.6031   77.1643   29.9043 H   0  0  0  0  0  0  0  0  0  0  0  0
   54.4837   74.9535   29.6145 H   0  0  0  0  0  0  0  0  0  0  0  0
   52.7039   74.6811   27.8917 H   0  0  0  0  0  0  0  0  0  0  0  0
   52.0401   76.6102   26.4561 H   0  0  0  0  0  0  0  0  0  0  0  0
   54.6747   81.4479   27.0865 H   0  0  0  0  0  0  0  0  0  0  0  0
   55.5160   80.8585   25.5834 H   0  0  0  0  0  0  0  0  0  0  0  0
   56.7005   82.7651   26.6360 H   0  0  0  0  0  0  0  0  0  0  0  0
   56.0824   83.1362   24.9683 H   0  0  0  0  0  0  0  0  0  0  0  0
   56.6420   85.1990   25.6090 H   0  0  0  0  0  0  0  0  0  0  0  0
   54.0028   87.5230   25.7215 H   0  0  0  0  0  0  0  0  0  0  0  0
   55.2268   90.3344   27.6481 H   0  0  0  0  0  0  0  0  0  0  0  0
   52.6025   88.9847   28.9501 H   0  0  0  0  0  0  0  0  0  0  0  0
   52.6574   90.4980   29.3072 H   0  0  0  0  0  0  0  0  0  0  0  0
   52.4929   89.2083   26.3629 H   0  0  0  0  0  0  0  0  0  0  0  0
   52.5286   90.7610   26.2672 H   0  0  0  0  0  0  0  0  0  0  0  0
   56.4120   88.4040   29.0770 H   0  0  0  0  0  0  0  0  0  0  0  0
   53.0432   83.9785   26.9430 H   0  0  0  0  0  0  0  0  0  0  0  0
   53.5527   85.1995   25.6628 H   0  0  0  0  0  0  0  0  0  0  0  0
   52.2227   83.2537   24.7974 H   0  0  0  0  0  0  0  0  0  0  0  0
   53.8567   83.5140   24.0459 H   0  0  0  0  0  0  0  0  0  0  0  0
  1  2  2  0
  2  3  1  0
  3  4  1  0
  4  5  2  0
  5  6  1  0
  6  7  2  0
  7  8  1  0
  8  9  2  0
  2 10  1  0
 10 11  2  0
 10 12  1  0
 12 13  1  0
 13 14  1  0
 14 15  1  0
 15 16  1  0
 16 17  1  0
 17 18  1  0
 18 19  2  0
 19 20  1  0
 20 21  1  0
 21 22  1  0
 19 23  1  0
 23 24  1  0
 15 25  1  0
 25 26  1  0
  9  4  1  0
 26 12  1  0
 24 17  2  0
 22 20  1  0
  3 27  1  0
  5 28  1  0
  6 29  1  0
  7 30  1  0
  8 31  1  0
  9 32  1  0
 13 33  1  0
 13 34  1  0
 14 35  1  0
 14 36  1  0
 16 37  1  0
 18 38  1  0
 20 39  1  0
 21 40  1  0
 21 41  1  0
 22 42  1  0
 22 43  1  0
 23 44  1  0
 25 45  1  0
 25 46  1  0
 26 47  1  0
 26 48  1  0
M  END
>  <meeko>  (1) 
{"is_sidechain": false}

>  <smiles>  (1) 
O=C(Nc1ccccc1)C(=S)N1CCN(Nc2cc(C3CC3)[nH]n2)CC1

>  <vina_score>  (1) 
-7.659

>  <job_id>  (1) 
19d477558e1b76c4

$$$$
