
     RDKit          3D

 39 40  0  0  0  0  0  0  0  0999 V2000
   52.2390   75.4190   26.7800 C   0  0  0  0  0  0  0  0  0  0  0  0
   52.1860   76.4020   27.9400 C   0  0  0  0  0  0  0  0  0  0  0  0
   53.4170   77.2700   27.9950 C   0  0  0  0  0  0  0  0  0  0  0  0
   54.4390   77.0010   28.9140 C   0  0  0  0  0  0  0  0  0  0  0  0
   55.5900   77.7960   28.9560 C   0  0  0  0  0  0  0  0  0  0  0  0
   55.7350   78.8680   28.0760 C   0  0  0  0  0  0  0  0  0  0  0  0
   56.8040   79.7190   28.0130 O   0  0  0  0  0  0  0  0  0  0  0  0
   58.0720   79.1880   28.3950 C   0  0  0  0  0  0  0  0  0  0  0  0
   58.8570   80.1960   29.2420 C   0  0  0  0  0  0  0  0  0  0  0  0
   59.7080   80.9110   28.7200 O   0  0  0  0  0  0  0  0  0  0  0  0
   58.4750   80.1860   30.5700 N   0  0  0  0  0  0  0  0  0  0  0  0
   58.9690   80.9560   31.6430 C   0  0  0  0  0  0  0  0  0  0  0  0
   59.7160   80.2330   32.5920 C   0  0  0  0  0  0  0  0  0  0  0  0
   60.2390   80.8470   33.7300 C   0  0  0  0  0  0  0  0  0  0  0  0
   60.0350   82.2030   33.9340 C   0  0  0  0  0  0  0  0  0  0  0  0
   59.3350   82.9430   32.9830 C   0  0  0  0  0  0  0  0  0  0  0  0
   58.8200   82.3440   31.8140 C   0  0  0  0  0  0  0  0  0  0  0  0
   58.1850   83.2690   30.8130 C   0  0  0  0  0  0  0  0  0  0  0  0
   54.7210   79.1340   27.1540 C   0  0  0  0  0  0  0  0  0  0  0  0
   53.5710   78.3430   27.1090 C   0  0  0  0  0  0  0  0  0  0  0  0
   52.2943   74.3925   27.1715 H   0  0  0  0  0  0  0  0  0  0  0  0
   51.3336   75.5285   26.1649 H   0  0  0  0  0  0  0  0  0  0  0  0
   53.1273   75.6252   26.1649 H   0  0  0  0  0  0  0  0  0  0  0  0
   51.3017   77.0454   27.8213 H   0  0  0  0  0  0  0  0  0  0  0  0
   52.1326   75.8249   28.8749 H   0  0  0  0  0  0  0  0  0  0  0  0
   54.3359   76.1557   29.6103 H   0  0  0  0  0  0  0  0  0  0  0  0
   56.3829   77.5745   29.6856 H   0  0  0  0  0  0  0  0  0  0  0  0
   57.9159   78.2702   28.9809 H   0  0  0  0  0  0  0  0  0  0  0  0
   58.6495   78.9704   27.4845 H   0  0  0  0  0  0  0  0  0  0  0  0
   57.5700   79.7440   30.7130 H   0  0  0  0  0  0  0  0  0  0  0  0
   59.8914   79.1589   32.4325 H   0  0  0  0  0  0  0  0  0  0  0  0
   60.8107   80.2580   34.4623 H   0  0  0  0  0  0  0  0  0  0  0  0
   60.4229   82.6913   34.8401 H   0  0  0  0  0  0  0  0  0  0  0  0
   59.1803   84.0196   33.1476 H   0  0  0  0  0  0  0  0  0  0  0  0
   57.6394   84.0638   31.3428 H   0  0  0  0  0  0  0  0  0  0  0  0
   58.9660   83.7183   30.1820 H   0  0  0  0  0  0  0  0  0  0  0  0
   57.4851   82.7016   30.1820 H   0  0  0  0  0  0  0  0  0  0  0  0
   54.8291   79.9764   26.4549 H   0  0  0  0  0  0  0  0  0  0  0  0
   52.7828   78.5640   26.3743 H   0  0  0  0  0  0  0  0  0  0  0  0
  1  2  1  0
  2  3  1  0
  3  4  1  0
  4  5  2  0
  5  6  1  0
  6  7  1  0
  7  8  1  0
  8  9  1  0
  9 10  2  0
  9 11  1  0
 11 12  1  0
 12 13  2  0
 13 14  1  0
 14 15  2  0
 15 16  1  0
 16 17  2  0
 17 18  1  0
  6 19  2  0
 19 20  1  0
 20  3  2  0
 17 12  1  0
  1 21  1  0
  1 22  1  0
  1 23  1  0
  2 24  1  0
  2 25  1  0
  4 26  1  0
  5 27  1  0
  8 28  1  0
  8 29  1  0
 11 30  1  0
 13 31  1  0
 14 32  1  0
 15 33  1  0
 16 34  1  0
 18 35  1  0
 18 36  1  0
 18 37  1  0
 19 38  1  0
 20 39  1  0
M  END
>  <meeko>  (1) 
{"is_sidechain": false}

>  <smiles>  (1) 
CCc1ccc(OCC(=O)Nc2ccccc2C)cc1

>  <vina_score>  (1) 
-7.677

>  <job_id>  (1) 
19ee5e637005630e

$$$$
