
     RDKit          3D

 52 56  0  0  0  0  0  0  0  0999 V2000
   62.2690   82.4140   36.2500 C   0  0  0  0  0  0  0  0  0  0  0  0
   62.4700   82.7030   34.7830 C   0  0  0  0  0  0  0  0  0  0  0  0
   63.5120   83.2310   34.3940 O   0  0  0  0  0  0  0  0  0  0  0  0
   61.4380   82.3440   33.9250 N   0  0  0  0  0  0  0  0  0  0  0  0
   61.5720   82.6420   32.4970 C   0  0  0  0  0  0  0  0  0  0  0  0
   60.2350   83.0650   31.9040 C   0  0  0  0  0  0  0  0  0  0  0  0
   59.1680   81.9720   32.0810 C   0  0  0  0  0  0  0  0  0  0  0  0
   58.9070   81.2600   30.8320 N   0  0  0  0  0  0  0  0  0  0  0  0
   58.3390   80.0220   30.7040 C   0  0  0  0  0  0  0  0  0  0  0  0
   58.2920   79.7660   29.3550 C   0  0  0  0  0  0  0  0  0  0  0  0
   57.7970   78.6390   28.8100 N   0  0  0  0  0  0  0  0  0  0  0  0
   56.4830   78.2010   28.6580 C   0  0  0  0  0  0  0  0  0  0  0  0
   55.9470   77.2860   29.4810 N   0  0  0  0  0  0  0  0  0  0  0  0
   54.6690   76.9140   29.2540 C   0  0  0  0  0  0  0  0  0  0  0  0
   53.8930   77.4250   28.2440 C   0  0  0  0  0  0  0  0  0  0  0  0
   52.2800   76.8850   28.0220 Cl  0  0  0  0  0  0  0  0  0  0  0  0
   54.5230   78.3680   27.4570 C   0  0  0  0  0  0  0  0  0  0  0  0
   53.8930   79.0340   26.3300 C   0  0  0  0  0  0  0  0  0  0  0  0
   53.5700   78.5410   25.0800 C   0  0  0  0  0  0  0  0  0  0  0  0
   52.9670   79.4900   24.2980 N   0  0  0  0  0  0  0  0  0  0  0  0
   52.9400   80.5770   25.0380 C   0  0  0  0  0  0  0  0  0  0  0  0
   52.4450   81.8830   24.7580 C   0  0  0  0  0  0  0  0  0  0  0  0
   52.5600   82.8570   25.6820 C   0  0  0  0  0  0  0  0  0  0  0  0
   53.1840   82.6100   26.9710 C   0  0  0  0  0  0  0  0  0  0  0  0
   53.6460   81.3770   27.2470 C   0  0  0  0  0  0  0  0  0  0  0  0
   53.5150   80.3640   26.2910 N   0  0  0  0  0  0  0  0  0  0  0  0
   55.8050   78.7580   27.6420 N   0  0  0  0  0  0  0  0  0  0  0  0
   58.8570   80.9080   28.7520 C   0  0  0  0  0  0  0  0  0  0  0  0
   59.2350   81.8220   29.6530 N   0  0  0  0  0  0  0  0  0  0  0  0
   59.4910   80.9830   33.2110 C   0  0  0  0  0  0  0  0  0  0  0  0
   60.2170   81.6680   34.3590 C   0  0  0  0  0  0  0  0  0  0  0  0
   62.7960   83.1717   36.8485 H   0  0  0  0  0  0  0  0  0  0  0  0
   61.1949   82.4426   36.4855 H   0  0  0  0  0  0  0  0  0  0  0  0
   62.6696   81.4170   36.4855 H   0  0  0  0  0  0  0  0  0  0  0  0
   62.2987   83.4573   32.3656 H   0  0  0  0  0  0  0  0  0  0  0  0
   61.9158   81.7347   31.9787 H   0  0  0  0  0  0  0  0  0  0  0  0
   59.8946   83.9816   32.4080 H   0  0  0  0  0  0  0  0  0  0  0  0
   60.3751   83.2388   30.8269 H   0  0  0  0  0  0  0  0  0  0  0  0
   58.2513   82.5031   32.3769 H   0  0  0  0  0  0  0  0  0  0  0  0
   57.9911   79.3657   31.5153 H   0  0  0  0  0  0  0  0  0  0  0  0
   58.4090   77.9270   28.4300 H   0  0  0  0  0  0  0  0  0  0  0  0
   54.2240   76.1575   29.9171 H   0  0  0  0  0  0  0  0  0  0  0  0
   53.7728   77.5106   24.7526 H   0  0  0  0  0  0  0  0  0  0  0  0
   51.9697   82.0960   23.7891 H   0  0  0  0  0  0  0  0  0  0  0  0
   52.1729   83.8615   25.4556 H   0  0  0  0  0  0  0  0  0  0  0  0
   53.2772   83.4193   27.7102 H   0  0  0  0  0  0  0  0  0  0  0  0
   54.1226   81.1672   28.2159 H   0  0  0  0  0  0  0  0  0  0  0  0
   58.9737   81.0333   27.6654 H   0  0  0  0  0  0  0  0  0  0  0  0
   58.5520   80.5518   33.5882 H   0  0  0  0  0  0  0  0  0  0  0  0
   60.1469   80.1981   32.8064 H   0  0  0  0  0  0  0  0  0  0  0  0
   59.5429   82.4117   34.8090 H   0  0  0  0  0  0  0  0  0  0  0  0
   60.5042   80.8917   35.0835 H   0  0  0  0  0  0  0  0  0  0  0  0
  1  2  1  0
  2  3  2  0
  2  4  1  0
  4  5  1  0
  5  6  1  0
  6  7  1  0
  7  8  1  0
  8  9  1  0
  9 10  2  0
 10 11  1  0
 11 12  1  0
 12 13  2  0
 13 14  1  0
 14 15  2  0
 15 16  1  0
 15 17  1  0
 17 18  1  0
 18 19  2  0
 19 20  1  0
 20 21  2  0
 21 22  1  0
 22 23  2  0
 23 24  1  0
 24 25  2  0
 25 26  1  0
 17 27  2  0
 10 28  1  0
 28 29  2  0
  7 30  1  0
 30 31  1  0
 31  4  1  0
 29  8  1  0
 27 12  1  0
 26 18  1  0
 26 21  1  0
  1 32  1  0
  1 33  1  0
  1 34  1  0
  5 35  1  0
  5 36  1  0
  6 37  1  0
  6 38  1  0
  7 39  1  0
  9 40  1  0
 11 41  1  0
 14 42  1  0
 19 43  1  0
 22 44  1  0
 23 45  1  0
 24 46  1  0
 25 47  1  0
 28 48  1  0
 30 49  1  0
 30 50  1  0
 31 51  1  0
 31 52  1  0
M  END
>  <meeko>  (1) 
{"is_sidechain": false}

>  <smiles>  (1) 
CC(=O)N1CCC(n2cc(Nc3ncc(Cl)c(-c4cnc5ccccn45)n3)cn2)CC1

>  <vina_score>  (1) 
-9.547

>  <job_id>  (1) 
1a0a6b36c5fcd79d

$$$$
