
     RDKit          3D

 59 61  0  0  0  0  0  0  0  0999 V2000
   53.6850   78.6110   24.2700 C   0  0  0  0  0  0  0  0  0  0  0  0
   53.4340   80.0010   24.8480 C   0  0  1  0  0  0  0  0  0  0  0  0
   52.0230   80.2320   24.8440 O   0  0  0  0  0  0  0  0  0  0  0  0
   54.0140   80.1560   26.2720 C   0  0  1  0  0  0  0  0  0  0  0  0
   53.5730   81.4810   26.8950 C   0  0  0  0  0  0  0  0  0  0  0  0
   53.5030   79.0700   27.0680 O   0  0  0  0  0  0  0  0  0  0  0  0
   54.4370   78.3350   27.7670 C   0  0  0  0  0  0  0  0  0  0  0  0
   55.6520   78.8680   28.0010 N   0  0  0  0  0  0  0  0  0  0  0  0
   56.5330   78.1290   28.6910 C   0  0  0  0  0  0  0  0  0  0  0  0
   57.7670   78.7320   28.9050 N   0  0  0  0  0  0  0  0  0  0  0  0
   58.1900   79.8570   29.6210 C   0  0  0  0  0  0  0  0  0  0  0  0
   58.0780   79.8420   31.0200 C   0  0  0  0  0  0  0  0  0  0  0  0
   58.4830   80.9340   31.7990 C   0  0  0  0  0  0  0  0  0  0  0  0
   59.0170   82.0850   31.2060 C   0  0  0  0  0  0  0  0  0  0  0  0
   59.4460   83.2350   32.0190 C   0  0  0  0  0  0  0  0  0  0  0  0
   59.2970   84.5510   31.5460 C   0  0  0  0  0  0  0  0  0  0  0  0
   59.7040   85.6460   32.3120 C   0  0  0  0  0  0  0  0  0  0  0  0
   60.2570   85.4310   33.5750 C   0  0  0  0  0  0  0  0  0  0  0  0
   60.7970   86.8110   34.5590 S   0  0  0  0  0  0  0  0  0  0  0  0
   62.0380   86.4120   35.2010 O   0  0  0  0  0  0  0  0  0  0  0  0
   60.7760   87.9900   33.7080 O   0  0  0  0  0  0  0  0  0  0  0  0
   59.5050   86.9950   35.8280 C   0  0  1  0  0  0  0  0  0  0  0  0
   58.1630   87.3570   35.2060 C   0  0  0  0  0  0  0  0  0  0  0  0
   59.3100   85.8570   36.6910 O   0  0  0  0  0  0  0  0  0  0  0  0
   60.4320   84.1360   34.0630 C   0  0  0  0  0  0  0  0  0  0  0  0
   60.0220   83.0480   33.2880 C   0  0  0  0  0  0  0  0  0  0  0  0
   59.1280   82.1010   29.8100 C   0  0  0  0  0  0  0  0  0  0  0  0
   58.7210   81.0060   29.0340 C   0  0  0  0  0  0  0  0  0  0  0  0
   56.2480   76.9010   29.1450 N   0  0  0  0  0  0  0  0  0  0  0  0
   55.0210   76.4060   28.8890 C   0  0  0  0  0  0  0  0  0  0  0  0
   54.0580   77.0900   28.1940 C   0  0  0  0  0  0  0  0  0  0  0  0
   52.7160   76.5250   27.9240 C   0  0  0  0  0  0  0  0  0  0  0  0
   52.4230   76.4530   26.5960 F   0  0  0  0  0  0  0  0  0  0  0  0
   52.5690   75.2530   28.3950 F   0  0  0  0  0  0  0  0  0  0  0  0
   51.7080   77.2410   28.4940 F   0  0  0  0  0  0  0  0  0  0  0  0
   53.8151   77.8905   25.0910 H   0  0  0  0  0  0  0  0  0  0  0  0
   52.8266   78.3107   23.6512 H   0  0  0  0  0  0  0  0  0  0  0  0
   54.5943   78.6299   23.6512 H   0  0  0  0  0  0  0  0  0  0  0  0
   53.9488   80.7482   24.2262 H   0  0  0  0  0  0  0  0  0  0  0  0
   51.8570   80.9750   25.4540 H   0  0  0  0  0  0  0  0  0  0  0  0
   55.1131   80.1429   26.2303 H   0  0  0  0  0  0  0  0  0  0  0  0
   53.6007   81.3978   27.9915 H   0  0  0  0  0  0  0  0  0  0  0  0
   54.2527   82.2828   26.5708 H   0  0  0  0  0  0  0  0  0  0  0  0
   52.5484   81.7155   26.5708 H   0  0  0  0  0  0  0  0  0  0  0  0
   58.4800   78.2120   28.4150 H   0  0  0  0  0  0  0  0  0  0  0  0
   57.6627   78.9525   31.5163 H   0  0  0  0  0  0  0  0  0  0  0  0
   58.3800   80.8866   32.8931 H   0  0  0  0  0  0  0  0  0  0  0  0
   58.8518   84.7212   30.5546 H   0  0  0  0  0  0  0  0  0  0  0  0
   59.5896   86.6686   31.9231 H   0  0  0  0  0  0  0  0  0  0  0  0
   59.8878   87.8095   36.4605 H   0  0  0  0  0  0  0  0  0  0  0  0
   57.4309   87.5545   36.0029 H   0  0  0  0  0  0  0  0  0  0  0  0
   58.2783   88.2562   34.5829 H   0  0  0  0  0  0  0  0  0  0  0  0
   57.8104   86.5219   34.5829 H   0  0  0  0  0  0  0  0  0  0  0  0
   58.3520   85.7720   36.8400 H   0  0  0  0  0  0  0  0  0  0  0  0
   60.8891   83.9726   35.0501 H   0  0  0  0  0  0  0  0  0  0  0  0
   60.1521   82.0275   33.6774 H   0  0  0  0  0  0  0  0  0  0  0  0
   59.5426   82.9900   29.3123 H   0  0  0  0  0  0  0  0  0  0  0  0
   58.8225   81.0540   27.9397 H   0  0  0  0  0  0  0  0  0  0  0  0
   54.7793   75.3983   29.2579 H   0  0  0  0  0  0  0  0  0  0  0  0
  1  2  1  0
  2  3  1  0
  2  4  1  0
  4  5  1  0
  4  6  1  0
  6  7  1  0
  7  8  2  0
  8  9  1  0
  9 10  1  0
 10 11  1  0
 11 12  1  0
 12 13  2  0
 13 14  1  0
 14 15  1  0
 15 16  1  0
 16 17  2  0
 17 18  1  0
 18 19  1  0
 19 20  2  0
 19 21  2  0
 19 22  1  0
 22 23  1  0
 22 24  1  0
 18 25  2  0
 25 26  1  0
 14 27  2  0
 27 28  1  0
  9 29  2  0
 29 30  1  0
 30 31  2  0
 31 32  1  0
 32 33  1  0
 32 34  1  0
 32 35  1  0
 31  7  1  0
 28 11  2  0
 26 15  2  0
  1 36  1  0
  1 37  1  0
  1 38  1  0
  2 39  1  6
  3 40  1  0
  4 41  1  6
  5 42  1  0
  5 43  1  0
  5 44  1  0
 10 45  1  0
 12 46  1  0
 13 47  1  0
 16 48  1  0
 17 49  1  0
 22 50  1  1
 23 51  1  0
 23 52  1  0
 23 53  1  0
 24 54  1  0
 25 55  1  0
 26 56  1  0
 27 57  1  0
 28 58  1  0
 30 59  1  0
M  END
>  <meeko>  (1) 
{"is_sidechain": false}

>  <smiles>  (1) 
C[C@@H](O)[C@@H](C)Oc1nc(Nc2ccc(-c3ccc(S(=O)(=O)[C@@H](C)O)cc3)cc2)ncc1C(F)(F)F

>  <vina_score>  (1) 
-8.105

>  <job_id>  (1) 
1a71842077a3ad4c

$$$$
