
     RDKit          3D

 45 47  0  0  0  0  0  0  0  0999 V2000
   53.0620   79.3670   26.0300 C   0  0  0  0  0  0  0  0  0  0  0  0
   52.8550   78.3110   26.9610 O   0  0  0  0  0  0  0  0  0  0  0  0
   53.9100   77.9840   27.7680 C   0  0  0  0  0  0  0  0  0  0  0  0
   53.8010   76.7390   28.3910 C   0  0  0  0  0  0  0  0  0  0  0  0
   54.8080   76.2780   29.2370 C   0  0  0  0  0  0  0  0  0  0  0  0
   55.9350   77.0660   29.4700 C   0  0  0  0  0  0  0  0  0  0  0  0
   56.0560   78.3230   28.8640 C   0  0  0  0  0  0  0  0  0  0  0  0
   57.2410   79.1700   29.0600 C   0  0  0  0  0  0  0  0  0  0  0  0
   57.5630   79.7510   30.2290 C   0  0  0  0  0  0  0  0  0  0  0  0
   58.7320   80.6080   30.4300 C   0  0  0  0  0  0  0  0  0  0  0  0
   59.3770   80.9950   29.3210 N   0  0  0  0  0  0  0  0  0  0  0  0
   60.4430   81.7820   29.5230 C   0  0  0  0  0  0  0  0  0  0  0  0
   60.8770   82.1690   30.7720 C   0  0  0  0  0  0  0  0  0  0  0  0
   60.1660   81.7110   31.8680 C   0  0  0  0  0  0  0  0  0  0  0  0
   60.5350   82.0720   33.1700 N   0  0  0  0  0  0  0  0  0  0  0  0
   60.4520   81.0090   34.1780 C   0  0  0  0  0  0  0  0  0  0  0  0
   61.4720   79.8870   33.9780 C   0  0  0  0  0  0  0  0  0  0  0  0
   62.8190   80.1970   34.6580 C   0  0  0  0  0  0  0  0  0  0  0  0
   63.4200   81.5010   34.3950 N   0  0  0  0  0  0  0  0  0  0  0  0
   62.5530   82.6730   34.5330 C   0  0  0  0  0  0  0  0  0  0  0  0
   61.6410   83.0290   33.3390 C   0  0  0  0  0  0  0  0  0  0  0  0
   59.0770   80.9430   31.6860 N   0  0  0  0  0  0  0  0  0  0  0  0
   55.0420   78.7690   28.0020 C   0  0  0  0  0  0  0  0  0  0  0  0
   53.2459   80.3050   26.5744 H   0  0  0  0  0  0  0  0  0  0  0  0
   53.9314   79.1334   25.3979 H   0  0  0  0  0  0  0  0  0  0  0  0
   52.1687   79.4789   25.3979 H   0  0  0  0  0  0  0  0  0  0  0  0
   52.9120   76.1163   28.2123 H   0  0  0  0  0  0  0  0  0  0  0  0
   54.7141   75.2943   29.7202 H   0  0  0  0  0  0  0  0  0  0  0  0
   56.7324   76.6986   30.1327 H   0  0  0  0  0  0  0  0  0  0  0  0
   57.9042   79.3387   28.1988 H   0  0  0  0  0  0  0  0  0  0  0  0
   56.9042   79.5702   31.0912 H   0  0  0  0  0  0  0  0  0  0  0  0
   61.0012   82.1379   28.6445 H   0  0  0  0  0  0  0  0  0  0  0  0
   61.7565   82.8183   30.8939 H   0  0  0  0  0  0  0  0  0  0  0  0
   60.6190   81.4569   35.1687 H   0  0  0  0  0  0  0  0  0  0  0  0
   59.4544   80.5554   34.0835 H   0  0  0  0  0  0  0  0  0  0  0  0
   61.0652   78.9583   34.4047 H   0  0  0  0  0  0  0  0  0  0  0  0
   61.6545   79.7851   32.8980 H   0  0  0  0  0  0  0  0  0  0  0  0
   62.6662   80.1172   35.7444 H   0  0  0  0  0  0  0  0  0  0  0  0
   63.5245   79.4704   34.2287 H   0  0  0  0  0  0  0  0  0  0  0  0
   64.2530   81.6070   34.9730 H   0  0  0  0  0  0  0  0  0  0  0  0
   61.9036   82.5018   35.4042 H   0  0  0  0  0  0  0  0  0  0  0  0
   63.2441   83.5242   34.6216 H   0  0  0  0  0  0  0  0  0  0  0  0
   61.2184   84.0311   33.5042 H   0  0  0  0  0  0  0  0  0  0  0  0
   62.2552   82.9947   32.4271 H   0  0  0  0  0  0  0  0  0  0  0  0
   55.1394   79.7459   27.5059 H   0  0  0  0  0  0  0  0  0  0  0  0
  1  2  1  0
  2  3  1  0
  3  4  1  0
  4  5  2  0
  5  6  1  0
  6  7  2  0
  7  8  1  0
  8  9  2  3
  9 10  1  0
 10 11  2  0
 11 12  1  0
 12 13  2  0
 13 14  1  0
 14 15  1  0
 15 16  1  0
 16 17  1  0
 17 18  1  0
 18 19  1  0
 19 20  1  0
 20 21  1  0
 14 22  2  0
  7 23  1  0
 23  3  2  0
 22 10  1  0
 21 15  1  0
  1 24  1  0
  1 25  1  0
  1 26  1  0
  4 27  1  0
  5 28  1  0
  6 29  1  0
  8 30  1  0
  9 31  1  0
 12 32  1  0
 13 33  1  0
 16 34  1  0
 16 35  1  0
 17 36  1  0
 17 37  1  0
 18 38  1  0
 18 39  1  0
 19 40  1  0
 20 41  1  0
 20 42  1  0
 21 43  1  0
 21 44  1  0
 23 45  1  0
M  END
>  <meeko>  (1) 
{"is_sidechain": false}

>  <smiles>  (1) 
COc1cccc(C=Cc2nccc(N3CCCNCC3)n2)c1

>  <vina_score>  (1) 
-5.948

>  <job_id>  (1) 
1ac77ce9e0de4a6b

$$$$
