
     RDKit          3D

 45 47  0  0  0  0  0  0  0  0999 V2000
   52.5760   81.7390   23.1760 C   0  0  0  0  0  0  0  0  0  0  0  0
   52.9350   82.4650   24.4680 C   0  0  0  0  0  0  0  0  0  0  0  0
   53.2880   81.5510   25.5650 N   0  0  0  0  0  0  0  0  0  0  0  0
   52.7480   80.2050   25.3050 C   0  0  0  0  0  0  0  0  0  0  0  0
   52.9500   79.2940   26.5240 C   0  0  0  0  0  0  0  0  0  0  0  0
   54.3540   79.3430   27.0380 C   0  0  0  0  0  0  0  0  0  0  0  0
   54.8670   78.4060   27.9020 C   0  0  0  0  0  0  0  0  0  0  0  0
   56.1200   78.4540   28.3950 N   0  0  0  0  0  0  0  0  0  0  0  0
   56.8900   79.4890   28.0190 C   0  0  0  0  0  0  0  0  0  0  0  0
   58.1750   79.4790   28.5510 N   0  0  0  0  0  0  0  0  0  0  0  0
   58.7880   80.1480   29.6110 C   0  0  0  0  0  0  0  0  0  0  0  0
   58.5590   79.8750   30.9570 C   0  0  0  0  0  0  0  0  0  0  0  0
   59.2080   80.6100   31.9540 C   0  0  0  0  0  0  0  0  0  0  0  0
   60.0870   81.6250   31.5930 C   0  0  0  0  0  0  0  0  0  0  0  0
   60.8210   82.4570   32.6250 C   0  0  0  0  0  0  0  0  0  0  0  0
   60.1750   82.3430   34.0070 C   0  0  0  0  0  0  0  0  0  0  0  0
   62.3090   82.1050   32.6800 C   0  0  0  0  0  0  0  0  0  0  0  0
   60.3300   81.9250   30.2960 N   0  0  0  0  0  0  0  0  0  0  0  0
   59.6820   81.1900   29.3570 C   0  0  0  0  0  0  0  0  0  0  0  0
   56.4710   80.4550   27.1890 N   0  0  0  0  0  0  0  0  0  0  0  0
   55.2040   80.3830   26.7190 C   0  0  0  0  0  0  0  0  0  0  0  0
   54.7580   81.4660   25.7540 C   0  0  0  0  0  0  0  0  0  0  0  0
   52.1002   80.7768   23.4162 H   0  0  0  0  0  0  0  0  0  0  0  0
   51.8793   82.3564   22.5899 H   0  0  0  0  0  0  0  0  0  0  0  0
   53.4895   81.5601   22.5899 H   0  0  0  0  0  0  0  0  0  0  0  0
   53.7933   83.1245   24.2720 H   0  0  0  0  0  0  0  0  0  0  0  0
   52.0456   83.0293   24.7849 H   0  0  0  0  0  0  0  0  0  0  0  0
   51.6726   80.2833   25.0871 H   0  0  0  0  0  0  0  0  0  0  0  0
   53.2809   79.7701   24.4466 H   0  0  0  0  0  0  0  0  0  0  0  0
   52.2680   79.6166   27.3245 H   0  0  0  0  0  0  0  0  0  0  0  0
   52.7398   78.2603   26.2123 H   0  0  0  0  0  0  0  0  0  0  0  0
   54.2194   77.5711   28.2079 H   0  0  0  0  0  0  0  0  0  0  0  0
   58.7180   78.7820   28.0640 H   0  0  0  0  0  0  0  0  0  0  0  0
   57.8607   79.0732   31.2389 H   0  0  0  0  0  0  0  0  0  0  0  0
   59.0246   80.3869   33.0154 H   0  0  0  0  0  0  0  0  0  0  0  0
   60.7400   83.5070   32.3073 H   0  0  0  0  0  0  0  0  0  0  0  0
   60.9428   82.4785   34.7830 H   0  0  0  0  0  0  0  0  0  0  0  0
   59.4028   83.1187   34.1159 H   0  0  0  0  0  0  0  0  0  0  0  0
   59.7149   81.3498   34.1159 H   0  0  0  0  0  0  0  0  0  0  0  0
   62.6293   82.0292   33.7296 H   0  0  0  0  0  0  0  0  0  0  0  0
   62.4770   81.1423   32.1750 H   0  0  0  0  0  0  0  0  0  0  0  0
   62.8905   82.8904   32.1750 H   0  0  0  0  0  0  0  0  0  0  0  0
   59.8784   81.4369   28.3032 H   0  0  0  0  0  0  0  0  0  0  0  0
   55.1124   82.4347   26.1362 H   0  0  0  0  0  0  0  0  0  0  0  0
   55.1864   81.2093   24.7739 H   0  0  0  0  0  0  0  0  0  0  0  0
  1  2  1  0
  2  3  1  0
  3  4  1  0
  4  5  1  0
  5  6  1  0
  6  7  2  0
  7  8  1  0
  8  9  2  0
  9 10  1  0
 10 11  1  0
 11 12  2  0
 12 13  1  0
 13 14  2  0
 14 15  1  0
 15 16  1  0
 15 17  1  0
 14 18  1  0
 18 19  2  0
  9 20  1  0
 20 21  2  0
 21 22  1  0
 22  3  1  0
 21  6  1  0
 19 11  1  0
  1 23  1  0
  1 24  1  0
  1 25  1  0
  2 26  1  0
  2 27  1  0
  4 28  1  0
  4 29  1  0
  5 30  1  0
  5 31  1  0
  7 32  1  0
 10 33  1  0
 12 34  1  0
 13 35  1  0
 15 36  1  0
 16 37  1  0
 16 38  1  0
 16 39  1  0
 17 40  1  0
 17 41  1  0
 17 42  1  0
 19 43  1  0
 22 44  1  0
 22 45  1  0
M  END
>  <meeko>  (1) 
{"is_sidechain": false}

>  <smiles>  (1) 
CCN1CCc2cnc(Nc3ccc(C(C)C)nc3)nc2C1

>  <vina_score>  (1) 
-7.576

>  <job_id>  (1) 
1ae54484883f2be3

$$$$
