
     RDKit          3D

 66 69  0  0  0  0  0  0  0  0999 V2000
   61.3290   80.6760   36.2370 C   0  0  0  0  0  0  0  0  0  0  0  0
   61.5840   82.0840   35.7280 C   0  0  0  0  0  0  0  0  0  0  0  0
   60.8260   82.3900   34.4450 C   0  0  0  0  0  0  0  0  0  0  0  0
   60.3040   83.4780   34.2390 O   0  0  0  0  0  0  0  0  0  0  0  0
   60.8250   81.2970   33.5920 N   0  0  0  0  0  0  0  0  0  0  0  0
   60.2260   81.2000   32.3190 C   0  0  0  0  0  0  0  0  0  0  0  0
   60.5980   81.9720   31.2190 C   0  0  0  0  0  0  0  0  0  0  0  0
   59.9510   81.8140   29.9860 C   0  0  0  0  0  0  0  0  0  0  0  0
   58.9240   80.8750   29.8320 C   0  0  0  0  0  0  0  0  0  0  0  0
   58.2110   80.7170   28.5120 C   0  0  0  0  0  0  0  0  0  0  0  0
   57.5680   79.4260   28.4670 N   0  0  0  0  0  0  0  0  0  0  0  0
   56.3140   79.2540   27.9240 C   0  0  0  0  0  0  0  0  0  0  0  0
   55.7540   80.0870   27.0960 N   0  0  0  0  0  0  0  0  0  0  0  0
   54.4960   79.7820   26.6240 C   0  0  0  0  0  0  0  0  0  0  0  0
   54.0650   80.7390   25.7680 O   0  0  0  0  0  0  0  0  0  0  0  0
   52.8490   80.4980   25.0270 C   0  0  0  0  0  0  0  0  0  0  0  0
   53.1830   79.8130   23.6960 C   0  0  0  0  0  0  0  0  0  0  0  0
   52.1840   80.2110   22.6170 C   0  0  0  0  0  0  0  0  0  0  0  0
   52.2410   81.6500   22.3260 N   0  0  0  0  0  0  0  0  0  0  0  0
   51.0270   82.0920   21.6450 C   0  0  0  0  0  0  0  0  0  0  0  0
   52.5590   82.4820   23.4950 C   0  0  0  0  0  0  0  0  0  0  0  0
   52.1500   81.8470   24.8220 C   0  0  0  0  0  0  0  0  0  0  0  0
   53.7820   78.7380   26.9270 N   0  0  0  0  0  0  0  0  0  0  0  0
   54.3450   77.8610   27.7990 C   0  0  0  0  0  0  0  0  0  0  0  0
   53.9420   76.6720   28.3740 C   0  0  0  0  0  0  0  0  0  0  0  0
   52.6450   75.9490   28.1640 C   0  0  0  0  0  0  0  0  0  0  0  0
   51.4440   76.8590   28.4280 C   0  0  0  0  0  0  0  0  0  0  0  0
   52.5600   75.3380   26.7650 C   0  0  0  0  0  0  0  0  0  0  0  0
   55.0340   76.3050   29.2080 C   0  0  0  0  0  0  0  0  0  0  0  0
   56.0450   77.1810   29.1710 N   0  0  0  0  0  0  0  0  0  0  0  0
   55.5970   78.1050   28.2920 N   0  0  0  0  0  0  0  0  0  0  0  0
   58.5450   80.1070   30.9400 C   0  0  0  0  0  0  0  0  0  0  0  0
   59.1920   80.2670   32.1700 C   0  0  0  0  0  0  0  0  0  0  0  0
   61.3294   80.6781   37.3370 H   0  0  0  0  0  0  0  0  0  0  0  0
   60.3527   80.3251   35.8713 H   0  0  0  0  0  0  0  0  0  0  0  0
   62.1202   80.0050   35.8713 H   0  0  0  0  0  0  0  0  0  0  0  0
   61.2702   82.8002   36.5016 H   0  0  0  0  0  0  0  0  0  0  0  0
   62.6584   82.1685   35.5077 H   0  0  0  0  0  0  0  0  0  0  0  0
   61.3090   80.4700   33.9150 H   0  0  0  0  0  0  0  0  0  0  0  0
   61.4062   82.7113   31.3199 H   0  0  0  0  0  0  0  0  0  0  0  0
   60.2534   82.4346   29.1296 H   0  0  0  0  0  0  0  0  0  0  0  0
   57.4540   81.5081   28.4066 H   0  0  0  0  0  0  0  0  0  0  0  0
   58.9377   80.7948   27.6899 H   0  0  0  0  0  0  0  0  0  0  0  0
   57.7840   78.7950   29.2400 H   0  0  0  0  0  0  0  0  0  0  0  0
   52.1723   79.8254   25.5744 H   0  0  0  0  0  0  0  0  0  0  0  0
   54.1933   80.1121   23.3801 H   0  0  0  0  0  0  0  0  0  0  0  0
   53.1331   78.7234   23.8380 H   0  0  0  0  0  0  0  0  0  0  0  0
   52.4116   79.6523   21.6972 H   0  0  0  0  0  0  0  0  0  0  0  0
   51.1735   79.9754   22.9823 H   0  0  0  0  0  0  0  0  0  0  0  0
   50.2678   82.3684   22.3915 H   0  0  0  0  0  0  0  0  0  0  0  0
   51.2567   82.9642   21.0153 H   0  0  0  0  0  0  0  0  0  0  0  0
   50.6421   81.2763   21.0153 H   0  0  0  0  0  0  0  0  0  0  0  0
   53.6447   82.6576   23.5127 H   0  0  0  0  0  0  0  0  0  0  0  0
   51.9876   83.4164   23.3930 H   0  0  0  0  0  0  0  0  0  0  0  0
   52.4264   82.5234   25.6442 H   0  0  0  0  0  0  0  0  0  0  0  0
   51.0630   81.6788   24.8085 H   0  0  0  0  0  0  0  0  0  0  0  0
   52.6157   75.1273   28.8947 H   0  0  0  0  0  0  0  0  0  0  0  0
   51.2988   76.9690   29.5128 H   0  0  0  0  0  0  0  0  0  0  0  0
   51.6272   77.8470   27.9805 H   0  0  0  0  0  0  0  0  0  0  0  0
   50.5424   76.4153   27.9805 H   0  0  0  0  0  0  0  0  0  0  0  0
   52.4089   74.2516   26.8479 H   0  0  0  0  0  0  0  0  0  0  0  0
   51.7154   75.7852   26.2203 H   0  0  0  0  0  0  0  0  0  0  0  0
   53.4946   75.5377   26.2203 H   0  0  0  0  0  0  0  0  0  0  0  0
   55.0463   75.3924   29.8220 H   0  0  0  0  0  0  0  0  0  0  0  0
   57.7322   79.3722   30.8424 H   0  0  0  0  0  0  0  0  0  0  0  0
   58.8853   79.6532   33.0297 H   0  0  0  0  0  0  0  0  0  0  0  0
  1  2  1  0
  2  3  1  0
  3  4  2  0
  3  5  1  0
  5  6  1  0
  6  7  1  0
  7  8  2  0
  8  9  1  0
  9 10  1  0
 10 11  1  0
 11 12  1  0
 12 13  2  0
 13 14  1  0
 14 15  1  0
 15 16  1  0
 16 17  1  0
 17 18  1  0
 18 19  1  0
 19 20  1  0
 19 21  1  0
 21 22  1  0
 14 23  2  0
 23 24  1  0
 24 25  2  0
 25 26  1  0
 26 27  1  0
 26 28  1  0
 25 29  1  0
 29 30  2  0
 30 31  1  0
  9 32  2  0
 32 33  1  0
 33  6  2  0
 31 12  1  0
 22 16  1  0
 31 24  1  0
  1 34  1  0
  1 35  1  0
  1 36  1  0
  2 37  1  0
  2 38  1  0
  5 39  1  0
  7 40  1  0
  8 41  1  0
 10 42  1  0
 10 43  1  0
 11 44  1  0
 16 45  1  0
 17 46  1  0
 17 47  1  0
 18 48  1  0
 18 49  1  0
 20 50  1  0
 20 51  1  0
 20 52  1  0
 21 53  1  0
 21 54  1  0
 22 55  1  0
 22 56  1  0
 26 57  1  0
 27 58  1  0
 27 59  1  0
 27 60  1  0
 28 61  1  0
 28 62  1  0
 28 63  1  0
 29 64  1  0
 32 65  1  0
 33 66  1  0
M  END
>  <meeko>  (1) 
{"is_sidechain": false}

>  <smiles>  (1) 
CCC(=O)Nc1ccc(CNc2nc(OC3CCN(C)CC3)nc3c(C(C)C)cnn23)cc1

>  <vina_score>  (1) 
-8.593

>  <job_id>  (1) 
1b35db0ce7ec3f5f

$$$$
