
     RDKit          3D

 42 45  0  0  0  0  0  0  0  0999 V2000
   53.2050   81.0600   22.5220 F   0  0  0  0  0  0  0  0  0  0  0  0
   53.1780   80.5240   23.7480 C   0  0  0  0  0  0  0  0  0  0  0  0
   53.3110   79.1480   23.8950 C   0  0  0  0  0  0  0  0  0  0  0  0
   53.2880   78.5810   25.1730 C   0  0  0  0  0  0  0  0  0  0  0  0
   53.1180   79.3880   26.3110 C   0  0  0  0  0  0  0  0  0  0  0  0
   53.1060   78.7850   27.5900 N   0  0  0  0  0  0  0  0  0  0  0  0
   54.2040   78.1360   28.2090 C   0  0  0  0  0  0  0  0  0  0  0  0
   55.4360   78.7610   28.1560 C   0  0  0  0  0  0  0  0  0  0  0  0
   56.5110   78.1190   28.7360 C   0  0  0  0  0  0  0  0  0  0  0  0
   57.7990   78.6640   28.7590 N   0  0  0  0  0  0  0  0  0  0  0  0
   58.2690   79.7760   29.4800 C   0  0  0  0  0  0  0  0  0  0  0  0
   58.9340   80.7760   28.7720 C   0  0  0  0  0  0  0  0  0  0  0  0
   59.4360   81.8850   29.4470 C   0  0  0  0  0  0  0  0  0  0  0  0
   59.2690   81.9850   30.8270 C   0  0  0  0  0  0  0  0  0  0  0  0
   58.6150   80.9370   31.4730 C   0  0  0  0  0  0  0  0  0  0  0  0
   58.1260   79.8500   30.8210 N   0  0  0  0  0  0  0  0  0  0  0  0
   58.3750   80.9990   32.9570 C   0  0  0  0  0  0  0  0  0  0  0  0
   59.3090   81.9960   33.6450 C   0  0  0  0  0  0  0  0  0  0  0  0
   59.2970   83.2840   32.9490 N   0  0  0  0  0  0  0  0  0  0  0  0
   59.8470   83.1400   31.5980 C   0  0  0  0  0  0  0  0  0  0  0  0
   56.3690   76.9430   29.3700 N   0  0  0  0  0  0  0  0  0  0  0  0
   55.1370   76.4200   29.3770 C   0  0  0  0  0  0  0  0  0  0  0  0
   54.0460   76.9500   28.8150 N   0  0  0  0  0  0  0  0  0  0  0  0
   53.0100   80.7790   26.1230 C   0  0  0  0  0  0  0  0  0  0  0  0
   52.9350   81.6080   27.1770 F   0  0  0  0  0  0  0  0  0  0  0  0
   53.0330   81.3480   24.8530 C   0  0  0  0  0  0  0  0  0  0  0  0
   53.4339   78.5076   23.0091 H   0  0  0  0  0  0  0  0  0  0  0  0
   53.4040   77.4933   25.2887 H   0  0  0  0  0  0  0  0  0  0  0  0
   52.6280   79.3470   28.2860 H   0  0  0  0  0  0  0  0  0  0  0  0
   55.5555   79.7391   27.6670 H   0  0  0  0  0  0  0  0  0  0  0  0
   58.1620   78.6310   27.8140 H   0  0  0  0  0  0  0  0  0  0  0  0
   59.0616   80.6889   27.6829 H   0  0  0  0  0  0  0  0  0  0  0  0
   59.9614   82.6778   28.8944 H   0  0  0  0  0  0  0  0  0  0  0  0
   57.3338   81.3052   33.1363 H   0  0  0  0  0  0  0  0  0  0  0  0
   58.5730   80.0015   33.3762 H   0  0  0  0  0  0  0  0  0  0  0  0
   58.9772   82.1439   34.6833 H   0  0  0  0  0  0  0  0  0  0  0  0
   60.3324   81.5931   33.6242 H   0  0  0  0  0  0  0  0  0  0  0  0
   59.8600   83.9590   33.4650 H   0  0  0  0  0  0  0  0  0  0  0  0
   59.6433   84.0659   31.0402 H   0  0  0  0  0  0  0  0  0  0  0  0
   60.9236   82.9438   31.7097 H   0  0  0  0  0  0  0  0  0  0  0  0
   55.0096   75.4589   29.8967 H   0  0  0  0  0  0  0  0  0  0  0  0
   52.9374   82.4367   24.7280 H   0  0  0  0  0  0  0  0  0  0  0  0
  1  2  1  0
  2  3  1  0
  3  4  2  0
  4  5  1  0
  5  6  1  0
  6  7  1  0
  7  8  1  0
  8  9  2  0
  9 10  1  0
 10 11  1  0
 11 12  1  0
 12 13  2  0
 13 14  1  0
 14 15  2  0
 15 16  1  0
 15 17  1  0
 17 18  1  0
 18 19  1  0
 19 20  1  0
  9 21  1  0
 21 22  2  0
 22 23  1  0
  5 24  2  0
 24 25  1  0
 24 26  1  0
 26  2  2  0
 23  7  2  0
 16 11  2  0
 20 14  1  0
  3 27  1  0
  4 28  1  0
  6 29  1  0
  8 30  1  0
 10 31  1  0
 12 32  1  0
 13 33  1  0
 17 34  1  0
 17 35  1  0
 18 36  1  0
 18 37  1  0
 19 38  1  0
 20 39  1  0
 20 40  1  0
 22 41  1  0
 26 42  1  0
M  END
>  <meeko>  (1) 
{"is_sidechain": false}

>  <smiles>  (1) 
Fc1ccc(Nc2cc(Nc3ccc4c(n3)CCNC4)ncn2)c(F)c1

>  <vina_score>  (1) 
-9.178

>  <job_id>  (1) 
1b947dbcce47df06

$$$$
