
     RDKit          3D

 35 37  0  0  0  0  0  0  0  0999 V2000
   56.6870   80.9820   27.3170 O   0  0  0  0  0  0  0  0  0  0  0  0
   57.1670   79.9030   27.6450 C   0  0  0  0  0  0  0  0  0  0  0  0
   56.4810   78.7090   27.6820 N   0  0  0  0  0  0  0  0  0  0  0  0
   55.0830   78.7330   27.7410 N   0  0  0  0  0  0  0  0  0  0  0  0
   54.3720   78.8960   26.5010 C   0  0  0  0  0  0  0  0  0  0  0  0
   52.9350   78.6500   26.9230 C   0  0  0  0  0  0  0  0  0  0  0  0
   53.0530   77.5930   28.0200 C   0  0  0  0  0  0  0  0  0  0  0  0
   54.4420   77.8140   28.5720 C   0  0  0  0  0  0  0  0  0  0  0  0
   54.9420   77.2310   29.5210 O   0  0  0  0  0  0  0  0  0  0  0  0
   58.4820   79.6800   28.0300 O   0  0  0  0  0  0  0  0  0  0  0  0
   58.8640   80.3480   29.1970 C   0  0  0  0  0  0  0  0  0  0  0  0
   58.4900   79.8570   30.4450 C   0  0  0  0  0  0  0  0  0  0  0  0
   58.9280   80.5170   31.5960 C   0  0  0  0  0  0  0  0  0  0  0  0
   59.7530   81.6500   31.5070 C   0  0  0  0  0  0  0  0  0  0  0  0
   60.1890   82.3340   32.7310 C   0  0  0  0  0  0  0  0  0  0  0  0
   59.9360   83.6360   33.1280 C   0  0  0  0  0  0  0  0  0  0  0  0
   60.5080   83.9470   34.3950 C   0  0  0  0  0  0  0  0  0  0  0  0
   61.1770   82.8730   34.9350 C   0  0  0  0  0  0  0  0  0  0  0  0
   61.1100   81.5010   33.9170 S   0  0  0  0  0  0  0  0  0  0  0  0
   60.1280   82.1130   30.2340 C   0  0  0  0  0  0  0  0  0  0  0  0
   59.6920   81.4590   29.0790 C   0  0  0  0  0  0  0  0  0  0  0  0
   56.9220   77.9730   28.2320 H   0  0  0  0  0  0  0  0  0  0  0  0
   54.5013   79.9110   26.0972 H   0  0  0  0  0  0  0  0  0  0  0  0
   54.7189   78.2257   25.7008 H   0  0  0  0  0  0  0  0  0  0  0  0
   52.4782   79.5712   27.3139 H   0  0  0  0  0  0  0  0  0  0  0  0
   52.2959   78.3269   26.0880 H   0  0  0  0  0  0  0  0  0  0  0  0
   52.2911   77.7469   28.7984 H   0  0  0  0  0  0  0  0  0  0  0  0
   52.8966   76.5695   27.6485 H   0  0  0  0  0  0  0  0  0  0  0  0
   57.8575   78.9605   30.5239 H   0  0  0  0  0  0  0  0  0  0  0  0
   58.6226   80.1443   32.5848 H   0  0  0  0  0  0  0  0  0  0  0  0
   59.3556   84.3534   32.5293 H   0  0  0  0  0  0  0  0  0  0  0  0
   60.4247   84.9291   34.8835 H   0  0  0  0  0  0  0  0  0  0  0  0
   61.6935   82.8944   35.9060 H   0  0  0  0  0  0  0  0  0  0  0  0
   60.7721   83.0004   30.1461 H   0  0  0  0  0  0  0  0  0  0  0  0
   60.0005   81.8192   28.0865 H   0  0  0  0  0  0  0  0  0  0  0  0
  1  2  2  0
  2  3  1  0
  3  4  1  0
  4  5  1  0
  5  6  1  0
  6  7  1  0
  7  8  1  0
  8  9  2  0
  2 10  1  0
 10 11  1  0
 11 12  1  0
 12 13  2  0
 13 14  1  0
 14 15  1  0
 15 16  2  0
 16 17  1  0
 17 18  2  0
 18 19  1  0
 14 20  2  0
 20 21  1  0
  8  4  1  0
 21 11  2  0
 19 15  1  0
  3 22  1  0
  5 23  1  0
  5 24  1  0
  6 25  1  0
  6 26  1  0
  7 27  1  0
  7 28  1  0
 12 29  1  0
 13 30  1  0
 16 31  1  0
 17 32  1  0
 18 33  1  0
 20 34  1  0
 21 35  1  0
M  END
>  <meeko>  (1) 
{"is_sidechain": false}

>  <smiles>  (1) 
O=C(NN1CCCC1=O)Oc1ccc(-c2cccs2)cc1

>  <vina_score>  (1) 
-7.074

>  <job_id>  (1) 
1b94e36b907d4b1e

$$$$
