
     RDKit          3D

 37 38  0  0  0  0  0  0  0  0999 V2000
   63.1560   81.3890   33.3610 C   0  0  0  0  0  0  0  0  0  0  0  0
   62.7930   82.2330   32.1660 C   0  0  0  0  0  0  0  0  0  0  0  0
   63.6170   82.4740   31.2810 O   0  0  0  0  0  0  0  0  0  0  0  0
   61.3750   82.7620   32.0880 C   0  0  0  0  0  0  0  0  0  0  0  0
   60.4480   81.8600   31.3120 C   0  0  0  0  0  0  0  0  0  0  0  0
   59.5850   80.9790   31.9780 C   0  0  0  0  0  0  0  0  0  0  0  0
   58.7210   80.1510   31.2540 C   0  0  0  0  0  0  0  0  0  0  0  0
   58.7200   80.1920   29.8550 C   0  0  0  0  0  0  0  0  0  0  0  0
   57.8100   79.3310   29.0480 C   0  0  0  0  0  0  0  0  0  0  0  0
   58.1030   79.1160   27.8790 O   0  0  0  0  0  0  0  0  0  0  0  0
   56.7240   78.8300   29.7440 N   0  0  0  0  0  0  0  0  0  0  0  0
   55.6800   78.0280   29.2380 C   0  0  0  0  0  0  0  0  0  0  0  0
   55.5300   76.6710   29.5200 C   0  0  0  0  0  0  0  0  0  0  0  0
   54.4690   75.9430   28.9710 C   0  0  0  0  0  0  0  0  0  0  0  0
   53.5450   76.5590   28.1200 C   0  0  0  0  0  0  0  0  0  0  0  0
   52.3890   75.7820   27.5620 C   0  0  0  0  0  0  0  0  0  0  0  0
   53.6880   77.9210   27.8450 C   0  0  0  0  0  0  0  0  0  0  0  0
   54.7490   78.6460   28.3940 C   0  0  0  0  0  0  0  0  0  0  0  0
   59.5670   81.0820   29.1870 C   0  0  0  0  0  0  0  0  0  0  0  0
   60.4310   81.9050   29.9100 C   0  0  0  0  0  0  0  0  0  0  0  0
   62.9195   81.9390   34.2838 H   0  0  0  0  0  0  0  0  0  0  0  0
   62.5817   80.4512   33.3356 H   0  0  0  0  0  0  0  0  0  0  0  0
   64.2318   81.1609   33.3356 H   0  0  0  0  0  0  0  0  0  0  0  0
   60.9845   82.8686   33.1108 H   0  0  0  0  0  0  0  0  0  0  0  0
   61.4134   83.7256   31.5589 H   0  0  0  0  0  0  0  0  0  0  0  0
   59.5872   80.9385   33.0773 H   0  0  0  0  0  0  0  0  0  0  0  0
   58.0419   79.4672   31.7844 H   0  0  0  0  0  0  0  0  0  0  0  0
   56.7040   78.9940   30.7410 H   0  0  0  0  0  0  0  0  0  0  0  0
   56.2523   76.1683   30.1800 H   0  0  0  0  0  0  0  0  0  0  0  0
   54.3601   74.8750   29.2109 H   0  0  0  0  0  0  0  0  0  0  0  0
   51.7864   75.3770   28.3884 H   0  0  0  0  0  0  0  0  0  0  0  0
   51.7655   76.4451   26.9443 H   0  0  0  0  0  0  0  0  0  0  0  0
   52.7676   74.9543   26.9443 H   0  0  0  0  0  0  0  0  0  0  0  0
   52.9609   78.4260   27.1922 H   0  0  0  0  0  0  0  0  0  0  0  0
   54.8542   79.7157   28.1602 H   0  0  0  0  0  0  0  0  0  0  0  0
   59.5520   81.1333   28.0883 H   0  0  0  0  0  0  0  0  0  0  0  0
   61.1032   82.5936   29.3772 H   0  0  0  0  0  0  0  0  0  0  0  0
  1  2  1  0
  2  3  2  0
  2  4  1  0
  4  5  1  0
  5  6  1  0
  6  7  2  0
  7  8  1  0
  8  9  1  0
  9 10  2  0
  9 11  1  0
 11 12  1  0
 12 13  1  0
 13 14  2  0
 14 15  1  0
 15 16  1  0
 15 17  2  0
 17 18  1  0
  8 19  2  0
 19 20  1  0
 20  5  2  0
 18 12  2  0
  1 21  1  0
  1 22  1  0
  1 23  1  0
  4 24  1  0
  4 25  1  0
  6 26  1  0
  7 27  1  0
 11 28  1  0
 13 29  1  0
 14 30  1  0
 16 31  1  0
 16 32  1  0
 16 33  1  0
 17 34  1  0
 18 35  1  0
 19 36  1  0
 20 37  1  0
M  END
>  <meeko>  (1) 
{"is_sidechain": false}

>  <smiles>  (1) 
CC(=O)Cc1ccc(C(=O)Nc2ccc(C)cc2)cc1

>  <vina_score>  (1) 
-7.757

>  <job_id>  (1) 
1bb6042e323c38f2

$$$$
