
     RDKit          3D

 56 59  0  0  0  0  0  0  0  0999 V2000
   55.1050   86.3840   25.9950 N   0  0  0  0  0  0  0  0  0  0  0  0
   54.9020   85.0110   26.1460 C   0  0  0  0  0  0  0  0  0  0  0  0
   55.8070   84.2350   26.8700 C   0  0  0  0  0  0  0  0  0  0  0  0
   55.5160   82.9040   27.1870 C   0  0  0  0  0  0  0  0  0  0  0  0
   54.2790   82.3410   26.8540 C   0  0  0  0  0  0  0  0  0  0  0  0
   53.9350   81.0110   27.1930 N   0  0  0  0  0  0  0  0  0  0  0  0
   54.7060   79.9330   26.8010 N   0  0  0  0  0  0  0  0  0  0  0  0
   54.0730   78.6680   26.6910 C   0  0  0  0  0  0  0  0  0  0  0  0
   53.1700   78.3630   25.6460 C   0  0  0  0  0  0  0  0  0  0  0  0
   52.9380   79.5120   24.3230 S   0  0  0  0  0  0  0  0  0  0  0  0
   51.8100   80.6070   24.9290 N   0  0  0  0  0  0  0  0  0  0  0  0
   52.2410   78.8510   23.2410 O   0  0  0  0  0  0  0  0  0  0  0  0
   54.1570   80.2620   24.1390 O   0  0  0  0  0  0  0  0  0  0  0  0
   52.4590   77.1570   25.6040 C   0  0  0  0  0  0  0  0  0  0  0  0
   52.6120   76.2050   26.6090 C   0  0  0  0  0  0  0  0  0  0  0  0
   53.5030   76.4980   27.6450 C   0  0  0  0  0  0  0  0  0  0  0  0
   53.8280   75.7480   28.7520 N   0  0  0  0  0  0  0  0  0  0  0  0
   54.7390   76.4080   29.5210 C   0  0  0  0  0  0  0  0  0  0  0  0
   55.1850   75.8580   30.6440 O   0  0  0  0  0  0  0  0  0  0  0  0
   55.0370   77.6080   28.9080 C   0  0  0  0  0  0  0  0  0  0  0  0
   55.9930   78.5710   29.4040 C   0  0  0  0  0  0  0  0  0  0  0  0
   57.0830   78.7980   28.7300 N   0  0  0  0  0  0  0  0  0  0  0  0
   57.9310   79.7400   29.3320 C   0  0  0  0  0  0  0  0  0  0  0  0
   58.7660   80.5410   28.5470 C   0  0  0  0  0  0  0  0  0  0  0  0
   59.6810   81.4080   29.1440 C   0  0  0  0  0  0  0  0  0  0  0  0
   59.7510   81.4810   30.5370 C   0  0  0  0  0  0  0  0  0  0  0  0
   60.9880   82.5070   31.2850 S   0  0  0  0  0  0  0  0  0  0  0  0
   62.4130   81.8810   30.6430 N   0  0  0  0  0  0  0  0  0  0  0  0
   60.9780   82.2680   32.7100 O   0  0  0  0  0  0  0  0  0  0  0  0
   60.8800   83.8350   30.7240 O   0  0  0  0  0  0  0  0  0  0  0  0
   58.8900   80.7220   31.3340 C   0  0  0  0  0  0  0  0  0  0  0  0
   57.9770   79.8570   30.7260 C   0  0  0  0  0  0  0  0  0  0  0  0
   54.2360   77.6870   27.7140 C   0  0  0  0  0  0  0  0  0  0  0  0
   53.3860   83.1130   26.1030 C   0  0  0  0  0  0  0  0  0  0  0  0
   53.6850   84.4400   25.7720 C   0  0  0  0  0  0  0  0  0  0  0  0
   55.7680   86.6510   25.2630 H   0  0  0  0  0  0  0  0  0  0  0  0
   54.2600   86.9420   25.9830 H   0  0  0  0  0  0  0  0  0  0  0  0
   56.7611   84.6750   27.1957 H   0  0  0  0  0  0  0  0  0  0  0  0
   56.2693   82.2920   27.7047 H   0  0  0  0  0  0  0  0  0  0  0  0
   53.5560   80.9610   28.1420 H   0  0  0  0  0  0  0  0  0  0  0  0
   55.2270   80.1490   25.9350 H   0  0  0  0  0  0  0  0  0  0  0  0
   51.1790   80.1210   25.5680 H   0  0  0  0  0  0  0  0  0  0  0  0
   52.3030   81.3880   25.3660 H   0  0  0  0  0  0  0  0  0  0  0  0
   51.7721   76.9595   24.7679 H   0  0  0  0  0  0  0  0  0  0  0  0
   52.0526   75.2581   26.5881 H   0  0  0  0  0  0  0  0  0  0  0  0
   53.4510   74.8400   28.9810 H   0  0  0  0  0  0  0  0  0  0  0  0
   54.4380   75.9250   31.2810 H   0  0  0  0  0  0  0  0  0  0  0  0
   55.8010   79.1084   30.3444 H   0  0  0  0  0  0  0  0  0  0  0  0
   58.7008   80.4870   27.4503 H   0  0  0  0  0  0  0  0  0  0  0  0
   60.3424   82.0295   28.5225 H   0  0  0  0  0  0  0  0  0  0  0  0
   62.2340   81.5860   29.6810 H   0  0  0  0  0  0  0  0  0  0  0  0
   62.8060   81.1220   31.2000 H   0  0  0  0  0  0  0  0  0  0  0  0
   58.9308   80.8049   32.4301 H   0  0  0  0  0  0  0  0  0  0  0  0
   57.2896   79.2638   31.3470 H   0  0  0  0  0  0  0  0  0  0  0  0
   52.4359   82.6712   25.7680 H   0  0  0  0  0  0  0  0  0  0  0  0
   52.9526   85.0390   25.2110 H   0  0  0  0  0  0  0  0  0  0  0  0
  1  2  1  0
  2  3  1  0
  3  4  2  0
  4  5  1  0
  5  6  1  0
  6  7  1  0
  7  8  1  0
  8  9  1  0
  9 10  1  0
 10 11  1  0
 10 12  2  0
 10 13  2  0
  9 14  2  0
 14 15  1  0
 15 16  2  0
 16 17  1  0
 17 18  1  0
 18 19  1  0
 18 20  2  0
 20 21  1  0
 21 22  2  3
 22 23  1  0
 23 24  1  0
 24 25  2  0
 25 26  1  0
 26 27  1  0
 27 28  1  0
 27 29  2  0
 27 30  2  0
 26 31  2  0
 31 32  1  0
 20 33  1  0
  5 34  2  0
 34 35  1  0
 35  2  2  0
 33  8  2  0
 33 16  1  0
 32 23  2  0
  1 36  1  0
  1 37  1  0
  3 38  1  0
  4 39  1  0
  6 40  1  0
  7 41  1  0
 11 42  1  0
 11 43  1  0
 14 44  1  0
 15 45  1  0
 17 46  1  0
 19 47  1  0
 21 48  1  0
 24 49  1  0
 25 50  1  0
 28 51  1  0
 28 52  1  0
 31 53  1  0
 32 54  1  0
 34 55  1  0
 35 56  1  0
M  END
>  <meeko>  (1) 
{"is_sidechain": false}

>  <smiles>  (1) 
Nc1ccc(NNc2c(S(N)(=O)=O)ccc3[nH]c(O)c(C=Nc4ccc(S(N)(=O)=O)cc4)c23)cc1

>  <vina_score>  (1) 
-7.614

>  <job_id>  (1) 
1bf23a4f1a992593

$$$$
