
     RDKit          3D

 60 63  0  0  0  0  0  0  0  0999 V2000
   52.9130   80.7710   23.7970 C   0  0  0  0  0  0  0  0  0  0  0  0
   53.2000   80.4440   25.0690 C   0  0  0  0  0  0  0  0  0  0  0  0
   52.9360   81.3630   26.2200 C   0  0  0  0  0  0  0  0  0  0  0  0
   53.7980   79.0940   25.3240 C   0  0  0  0  0  0  0  0  0  0  0  0
   54.2110   78.3590   24.4350 O   0  0  0  0  0  0  0  0  0  0  0  0
   53.8560   78.6060   26.7570 C   0  0  0  0  0  0  0  0  0  0  0  0
   52.9110   77.9630   27.1970 O   0  0  0  0  0  0  0  0  0  0  0  0
   55.0640   78.8840   27.5790 C   0  0  0  0  0  0  0  0  0  0  0  0
   55.2360   78.1750   28.7710 C   0  0  0  0  0  0  0  0  0  0  0  0
   56.3690   78.3930   29.5640 C   0  0  0  0  0  0  0  0  0  0  0  0
   57.3540   79.3210   29.1940 C   0  0  0  0  0  0  0  0  0  0  0  0
   58.4660   79.4820   30.0270 N   0  0  0  0  0  0  0  0  0  0  0  0
   58.7440   80.2840   31.1260 C   0  0  0  0  0  0  0  0  0  0  0  0
   57.8090   80.6070   32.0330 N   0  0  0  0  0  0  0  0  0  0  0  0
   58.1830   81.3990   33.0570 C   0  0  0  0  0  0  0  0  0  0  0  0
   59.4560   81.8810   33.2160 C   0  0  0  0  0  0  0  0  0  0  0  0
   59.7510   82.6980   34.2340 F   0  0  0  0  0  0  0  0  0  0  0  0
   60.3680   81.5070   32.2560 C   0  0  0  0  0  0  0  0  0  0  0  0
   61.7700   81.9470   32.3060 C   0  0  0  0  0  0  0  0  0  0  0  0
   62.5750   81.3570   33.2180 N   0  0  0  0  0  0  0  0  0  0  0  0
   63.8480   81.7950   33.2720 C   0  0  0  0  0  0  0  0  0  0  0  0
   64.3370   82.7870   32.4620 C   0  0  0  0  0  0  0  0  0  0  0  0
   65.6100   83.1910   32.5690 F   0  0  0  0  0  0  0  0  0  0  0  0
   63.4490   83.3310   31.5530 C   0  0  0  0  0  0  0  0  0  0  0  0
   63.8230   84.4480   30.6910 C   0  0  0  0  0  0  0  0  0  0  0  0
   64.5610   84.3950   29.5200 C   0  0  0  0  0  0  0  0  0  0  0  0
   64.7430   85.6280   28.9730 N   0  0  0  0  0  0  0  0  0  0  0  0
   64.1260   86.4650   29.7760 C   0  0  0  0  0  0  0  0  0  0  0  0
   64.0840   87.9380   29.5750 C   0  0  0  0  0  0  0  0  0  0  0  0
   63.5160   85.7930   30.8300 N   0  0  0  0  0  0  0  0  0  0  0  0
   62.6810   86.4550   31.8320 C   0  0  0  0  0  0  0  0  0  0  0  0
   63.1990   86.2280   33.2510 C   0  0  0  0  0  0  0  0  0  0  0  0
   61.1780   86.2000   31.6940 C   0  0  0  0  0  0  0  0  0  0  0  0
   62.1630   82.9250   31.4580 N   0  0  0  0  0  0  0  0  0  0  0  0
   60.0140   80.7130   31.2040 N   0  0  0  0  0  0  0  0  0  0  0  0
   57.1660   80.0210   27.9980 C   0  0  0  0  0  0  0  0  0  0  0  0
   56.0350   79.8100   27.1950 C   0  0  0  0  0  0  0  0  0  0  0  0
   53.1261   80.0603   22.9849 H   0  0  0  0  0  0  0  0  0  0  0  0
   52.4650   81.7493   23.5683 H   0  0  0  0  0  0  0  0  0  0  0  0
   53.0916   80.8215   27.1647 H   0  0  0  0  0  0  0  0  0  0  0  0
   53.6244   82.2195   26.1707 H   0  0  0  0  0  0  0  0  0  0  0  0
   51.8979   81.7236   26.1707 H   0  0  0  0  0  0  0  0  0  0  0  0
   54.4784   77.4429   29.0873 H   0  0  0  0  0  0  0  0  0  0  0  0
   56.4896   77.8241   30.4977 H   0  0  0  0  0  0  0  0  0  0  0  0
   59.2620   78.8850   29.8490 H   0  0  0  0  0  0  0  0  0  0  0  0
   57.4255   81.6735   33.8059 H   0  0  0  0  0  0  0  0  0  0  0  0
   64.5289   81.3336   34.0024 H   0  0  0  0  0  0  0  0  0  0  0  0
   64.9540   83.4651   29.0832 H   0  0  0  0  0  0  0  0  0  0  0  0
   64.0697   88.4413   30.5530 H   0  0  0  0  0  0  0  0  0  0  0  0
   64.9734   88.2567   29.0117 H   0  0  0  0  0  0  0  0  0  0  0  0
   63.1779   88.2055   29.0117 H   0  0  0  0  0  0  0  0  0  0  0  0
   62.7816   87.5291   31.6169 H   0  0  0  0  0  0  0  0  0  0  0  0
   62.4410   86.5602   33.9756 H   0  0  0  0  0  0  0  0  0  0  0  0
   63.4040   85.1575   33.3996 H   0  0  0  0  0  0  0  0  0  0  0  0
   64.1250   86.8028   33.3996 H   0  0  0  0  0  0  0  0  0  0  0  0
   60.7258   86.1233   32.6938 H   0  0  0  0  0  0  0  0  0  0  0  0
   60.7138   87.0322   31.1445 H   0  0  0  0  0  0  0  0  0  0  0  0
   61.0143   85.2612   31.1445 H   0  0  0  0  0  0  0  0  0  0  0  0
   57.9221   80.7538   27.6796 H   0  0  0  0  0  0  0  0  0  0  0  0
   55.9132   80.3762   26.2598 H   0  0  0  0  0  0  0  0  0  0  0  0
  1  2  2  0
  2  3  1  0
  2  4  1  0
  4  5  2  0
  4  6  1  0
  6  7  2  0
  6  8  1  0
  8  9  1  0
  9 10  2  0
 10 11  1  0
 11 12  1  0
 12 13  1  0
 13 14  2  0
 14 15  1  0
 15 16  2  0
 16 17  1  0
 16 18  1  0
 18 19  1  0
 19 20  2  0
 20 21  1  0
 21 22  2  0
 22 23  1  0
 22 24  1  0
 24 25  1  0
 25 26  2  0
 26 27  1  0
 27 28  2  0
 28 29  1  0
 28 30  1  0
 30 31  1  0
 31 32  1  0
 31 33  1  0
 24 34  2  0
 18 35  2  0
 11 36  2  0
 36 37  1  0
 37  8  2  0
 35 13  1  0
 34 19  1  0
 30 25  1  0
  1 38  1  0
  1 39  1  0
  3 40  1  0
  3 41  1  0
  3 42  1  0
  9 43  1  0
 10 44  1  0
 12 45  1  0
 15 46  1  0
 21 47  1  0
 26 48  1  0
 29 49  1  0
 29 50  1  0
 29 51  1  0
 31 52  1  0
 32 53  1  0
 32 54  1  0
 32 55  1  0
 33 56  1  0
 33 57  1  0
 33 58  1  0
 36 59  1  0
 37 60  1  0
M  END
>  <meeko>  (1) 
{"is_sidechain": false}

>  <smiles>  (1) 
C=C(C)C(=O)C(=O)c1ccc(Nc2ncc(F)c(-c3ncc(F)c(-c4cnc(C)n4C(C)C)n3)n2)cc1

>  <vina_score>  (1) 
-8.177

>  <job_id>  (1) 
1c11dd1370db9941

$$$$
