
     RDKit          3D

 41 43  0  0  0  0  0  0  0  0999 V2000
   52.6780   76.5160   27.5720 C   0  0  0  0  0  0  0  0  0  0  0  0
   52.9040   77.6900   26.8680 C   0  0  0  0  0  0  0  0  0  0  0  0
   54.0260   78.4610   27.1660 C   0  0  0  0  0  0  0  0  0  0  0  0
   54.9020   78.0410   28.1680 C   0  0  0  0  0  0  0  0  0  0  0  0
   56.1150   78.7990   28.5480 C   0  0  0  0  0  0  0  0  0  0  0  0
   56.6280   78.7220   29.8560 C   0  0  0  0  0  0  0  0  0  0  0  0
   57.7760   79.4260   30.2390 C   0  0  0  0  0  0  0  0  0  0  0  0
   58.4480   80.2390   29.3210 C   0  0  0  0  0  0  0  0  0  0  0  0
   59.6950   80.9980   29.7260 C   0  0  0  0  0  0  0  0  0  0  0  0
   59.5170   81.8090   30.9410 N   0  0  0  0  0  0  0  0  0  0  0  0
   58.7890   83.0490   30.6740 C   0  0  0  0  0  0  0  0  0  0  0  0
   58.2780   83.8430   31.8770 C   0  0  0  0  0  0  0  0  0  0  0  0
   59.2940   84.1330   32.9790 C   0  0  0  0  0  0  0  0  0  0  0  0
   59.6350   82.9730   33.7910 N   0  0  0  0  0  0  0  0  0  0  0  0
   60.6840   82.1070   33.2230 C   0  0  0  0  0  0  0  0  0  0  0  0
   60.7840   81.9750   31.6800 C   0  0  0  0  0  0  0  0  0  0  0  0
   57.9490   80.3320   28.0170 C   0  0  0  0  0  0  0  0  0  0  0  0
   56.7990   79.6260   27.6390 C   0  0  0  0  0  0  0  0  0  0  0  0
   54.6900   76.8860   28.8520 N   0  0  0  0  0  0  0  0  0  0  0  0
   53.5920   76.1580   28.5460 C   0  0  0  0  0  0  0  0  0  0  0  0
   51.7988   75.8893   27.3618 H   0  0  0  0  0  0  0  0  0  0  0  0
   52.2040   78.0093   26.0818 H   0  0  0  0  0  0  0  0  0  0  0  0
   54.2197   79.3935   26.6156 H   0  0  0  0  0  0  0  0  0  0  0  0
   56.1137   78.0923   30.5969 H   0  0  0  0  0  0  0  0  0  0  0  0
   58.1519   79.3390   31.2691 H   0  0  0  0  0  0  0  0  0  0  0  0
   60.5017   80.2723   29.9063 H   0  0  0  0  0  0  0  0  0  0  0  0
   59.9343   81.6906   28.9056 H   0  0  0  0  0  0  0  0  0  0  0  0
   59.4606   83.7090   30.1053 H   0  0  0  0  0  0  0  0  0  0  0  0
   57.8799   82.7304   30.1430 H   0  0  0  0  0  0  0  0  0  0  0  0
   57.9018   84.8078   31.5061 H   0  0  0  0  0  0  0  0  0  0  0  0
   57.5130   83.2057   32.3446 H   0  0  0  0  0  0  0  0  0  0  0  0
   60.2150   84.5096   32.5099 H   0  0  0  0  0  0  0  0  0  0  0  0
   58.8307   84.8682   33.6534 H   0  0  0  0  0  0  0  0  0  0  0  0
   58.8020   82.4140   33.9720 H   0  0  0  0  0  0  0  0  0  0  0  0
   61.6507   82.4930   33.5787 H   0  0  0  0  0  0  0  0  0  0  0  0
   60.4097   81.0968   33.5612 H   0  0  0  0  0  0  0  0  0  0  0  0
   61.2741   82.8834   31.2997 H   0  0  0  0  0  0  0  0  0  0  0  0
   61.3414   81.0425   31.5072 H   0  0  0  0  0  0  0  0  0  0  0  0
   58.4649   80.9660   27.2808 H   0  0  0  0  0  0  0  0  0  0  0  0
   56.4233   79.7206   26.6095 H   0  0  0  0  0  0  0  0  0  0  0  0
   53.4158   75.2268   29.1045 H   0  0  0  0  0  0  0  0  0  0  0  0
  1  2  2  0
  2  3  1  0
  3  4  2  0
  4  5  1  0
  5  6  1  0
  6  7  2  0
  7  8  1  0
  8  9  1  0
  9 10  1  0
 10 11  1  0
 11 12  1  0
 12 13  1  0
 13 14  1  0
 14 15  1  0
 15 16  1  0
  8 17  2  0
 17 18  1  0
  4 19  1  0
 19 20  2  0
 20  1  1  0
 18  5  2  0
 16 10  1  0
  1 21  1  0
  2 22  1  0
  3 23  1  0
  6 24  1  0
  7 25  1  0
  9 26  1  0
  9 27  1  0
 11 28  1  0
 11 29  1  0
 12 30  1  0
 12 31  1  0
 13 32  1  0
 13 33  1  0
 14 34  1  0
 15 35  1  0
 15 36  1  0
 16 37  1  0
 16 38  1  0
 17 39  1  0
 18 40  1  0
 20 41  1  0
M  END
>  <meeko>  (1) 
{"is_sidechain": false}

>  <smiles>  (1) 
c1ccc(-c2ccc(CN3CCCNCC3)cc2)nc1

>  <vina_score>  (1) 
-5.492

>  <job_id>  (1) 
1c1af769cb28a9c2

$$$$
