
     RDKit          3D

 69 73  0  0  0  0  0  0  0  0999 V2000
   51.9440   83.1060   22.5480 C   0  0  0  0  0  0  0  0  0  0  0  0
   52.4180   81.9840   23.3980 C   0  0  0  0  0  0  0  0  0  0  0  0
   52.4260   80.7280   23.0000 N   0  0  0  0  0  0  0  0  0  0  0  0
   52.9350   79.9960   24.0400 C   0  0  0  0  0  0  0  0  0  0  0  0
   53.1760   78.6180   24.1540 C   0  0  0  0  0  0  0  0  0  0  0  0
   52.8950   77.7800   23.1450 F   0  0  0  0  0  0  0  0  0  0  0  0
   53.7180   78.1020   25.3330 C   0  0  0  0  0  0  0  0  0  0  0  0
   54.0350   78.9280   26.4270 C   0  0  0  0  0  0  0  0  0  0  0  0
   54.6180   78.3410   27.6530 C   0  0  0  0  0  0  0  0  0  0  0  0
   55.8870   78.7360   27.9320 N   0  0  0  0  0  0  0  0  0  0  0  0
   56.4910   78.2510   29.0310 C   0  0  0  0  0  0  0  0  0  0  0  0
   57.7780   78.6160   29.3720 N   0  0  0  0  0  0  0  0  0  0  0  0
   58.4050   79.8080   29.6870 C   0  0  0  0  0  0  0  0  0  0  0  0
   59.0660   80.6130   28.7690 C   0  0  0  0  0  0  0  0  0  0  0  0
   59.6670   81.7970   29.1950 C   0  0  0  0  0  0  0  0  0  0  0  0
   59.5900   82.1700   30.5350 C   0  0  0  0  0  0  0  0  0  0  0  0
   58.9200   81.3100   31.4000 C   0  0  0  0  0  0  0  0  0  0  0  0
   58.3300   80.1560   30.9910 N   0  0  0  0  0  0  0  0  0  0  0  0
   58.7630   81.6650   32.8550 C   0  0  0  0  0  0  0  0  0  0  0  0
   59.7250   82.7770   33.2840 C   0  0  0  0  0  0  0  0  0  0  0  0
   59.7980   83.9080   32.3430 N   0  0  0  0  0  0  0  0  0  0  0  0
   58.5380   84.6650   32.1970 C   0  0  0  0  0  0  0  0  0  0  0  0
   58.6470   85.8230   31.1920 C   0  0  0  0  0  0  0  0  0  0  0  0
   57.7490   87.0080   31.5840 C   0  0  0  0  0  0  0  0  0  0  0  0
   57.0740   87.6050   30.4530 N   0  0  0  0  0  0  0  0  0  0  0  0
   56.6850   86.6530   32.5190 N   0  0  0  0  0  0  0  0  0  0  0  0
   55.4720   87.3560   32.1190 O   0  0  0  0  0  0  0  0  0  0  0  0
   60.2770   83.4140   31.0350 C   0  0  0  0  0  0  0  0  0  0  0  0
   55.8970   77.3800   29.8640 N   0  0  0  0  0  0  0  0  0  0  0  0
   54.6390   76.9970   29.5630 C   0  0  0  0  0  0  0  0  0  0  0  0
   53.9510   77.4500   28.4680 C   0  0  0  0  0  0  0  0  0  0  0  0
   52.7070   77.0190   28.2230 F   0  0  0  0  0  0  0  0  0  0  0  0
   53.7970   80.3170   26.3090 C   0  0  0  0  0  0  0  0  0  0  0  0
   53.2430   80.8210   25.1160 C   0  0  0  0  0  0  0  0  0  0  0  0
   52.8930   82.0930   24.6910 N   0  0  0  0  0  0  0  0  0  0  0  0
   53.0480   83.3000   25.5020 C   0  0  0  0  0  0  0  0  0  0  0  0
   54.5010   83.6970   25.7690 C   0  0  0  0  0  0  0  0  0  0  0  0
   52.2270   83.2310   26.7890 C   0  0  0  0  0  0  0  0  0  0  0  0
   51.5960   83.9297   23.1886 H   0  0  0  0  0  0  0  0  0  0  0  0
   52.7698   83.4591   21.9129 H   0  0  0  0  0  0  0  0  0  0  0  0
   51.1151   82.7601   21.9129 H   0  0  0  0  0  0  0  0  0  0  0  0
   53.9021   77.0201   25.4085 H   0  0  0  0  0  0  0  0  0  0  0  0
   58.4150   77.8360   29.3770 H   0  0  0  0  0  0  0  0  0  0  0  0
   59.1154   80.3181   27.7104 H   0  0  0  0  0  0  0  0  0  0  0  0
   60.2005   82.4348   28.4748 H   0  0  0  0  0  0  0  0  0  0  0  0
   57.7306   82.0028   33.0282 H   0  0  0  0  0  0  0  0  0  0  0  0
   58.9948   80.7688   33.4492 H   0  0  0  0  0  0  0  0  0  0  0  0
   59.3948   83.1613   34.2604 H   0  0  0  0  0  0  0  0  0  0  0  0
   60.7294   82.3299   33.3197 H   0  0  0  0  0  0  0  0  0  0  0  0
   57.7525   83.9756   31.8539 H   0  0  0  0  0  0  0  0  0  0  0  0
   58.3005   85.1017   33.1783 H   0  0  0  0  0  0  0  0  0  0  0  0
   59.6918   86.1652   31.1555 H   0  0  0  0  0  0  0  0  0  0  0  0
   58.3162   85.4545   30.2097 H   0  0  0  0  0  0  0  0  0  0  0  0
   58.4609   87.7078   32.0460 H   0  0  0  0  0  0  0  0  0  0  0  0
   56.7500   86.8290   29.8780 H   0  0  0  0  0  0  0  0  0  0  0  0
   57.7980   88.0520   29.8960 H   0  0  0  0  0  0  0  0  0  0  0  0
   56.4290   85.6770   32.3530 H   0  0  0  0  0  0  0  0  0  0  0  0
   54.7780   86.7410   32.4260 H   0  0  0  0  0  0  0  0  0  0  0  0
   60.1237   84.2107   30.2922 H   0  0  0  0  0  0  0  0  0  0  0  0
   61.3346   83.1463   31.1755 H   0  0  0  0  0  0  0  0  0  0  0  0
   54.1384   76.2824   30.2329 H   0  0  0  0  0  0  0  0  0  0  0  0
   54.0417   80.9959   27.1392 H   0  0  0  0  0  0  0  0  0  0  0  0
   52.6393   84.1145   24.8859 H   0  0  0  0  0  0  0  0  0  0  0  0
   54.6747   83.7444   26.8542 H   0  0  0  0  0  0  0  0  0  0  0  0
   55.1733   82.9496   25.3224 H   0  0  0  0  0  0  0  0  0  0  0  0
   54.6999   84.6824   25.3224 H   0  0  0  0  0  0  0  0  0  0  0  0
   52.9004   83.2876   27.6570 H   0  0  0  0  0  0  0  0  0  0  0  0
   51.5196   84.0729   26.8182 H   0  0  0  0  0  0  0  0  0  0  0  0
   51.6700   82.2829   26.8182 H   0  0  0  0  0  0  0  0  0  0  0  0
  1  2  1  0
  2  3  2  0
  3  4  1  0
  4  5  2  0
  5  6  1  0
  5  7  1  0
  7  8  2  0
  8  9  1  0
  9 10  2  0
 10 11  1  0
 11 12  1  0
 12 13  1  0
 13 14  1  0
 14 15  2  0
 15 16  1  0
 16 17  2  0
 17 18  1  0
 17 19  1  0
 19 20  1  0
 20 21  1  0
 21 22  1  0
 22 23  1  0
 23 24  1  0
 24 25  1  0
 24 26  1  0
 26 27  1  0
 21 28  1  0
 11 29  2  0
 29 30  1  0
 30 31  2  0
 31 32  1  0
  8 33  1  0
 33 34  2  0
 34 35  1  0
 35 36  1  0
 36 37  1  0
 36 38  1  0
 35  2  1  0
 34  4  1  0
 31  9  1  0
 18 13  2  0
 28 16  1  0
  1 39  1  0
  1 40  1  0
  1 41  1  0
  7 42  1  0
 12 43  1  0
 14 44  1  0
 15 45  1  0
 19 46  1  0
 19 47  1  0
 20 48  1  0
 20 49  1  0
 22 50  1  0
 22 51  1  0
 23 52  1  0
 23 53  1  0
 24 54  1  0
 25 55  1  0
 25 56  1  0
 26 57  1  0
 27 58  1  0
 28 59  1  0
 28 60  1  0
 30 61  1  0
 33 62  1  0
 36 63  1  0
 37 64  1  0
 37 65  1  0
 37 66  1  0
 38 67  1  0
 38 68  1  0
 38 69  1  0
M  END
>  <meeko>  (1) 
{"is_sidechain": false}

>  <smiles>  (1) 
Cc1nc2c(F)cc(-c3nc(Nc4ccc5c(n4)CCN(CCC(N)NO)C5)ncc3F)cc2n1C(C)C

>  <vina_score>  (1) 
-8.788

>  <job_id>  (1) 
1cb6a299969efe2a

$$$$
