
     RDKit          3D

 56 60  0  0  0  0  0  0  0  0999 V2000
   49.4000   81.0490   22.2720 N   0  0  0  0  0  0  0  0  0  0  0  0
   50.8240   81.5800   21.5470 S   0  0  0  0  0  0  0  0  0  0  0  0
   50.6850   82.9890   21.2700 O   0  0  0  0  0  0  0  0  0  0  0  0
   51.1230   80.6080   20.5200 O   0  0  0  0  0  0  0  0  0  0  0  0
   51.9890   81.3800   22.8690 C   0  0  0  0  0  0  0  0  0  0  0  0
   52.4450   80.1000   23.1930 C   0  0  0  0  0  0  0  0  0  0  0  0
   53.3590   79.9400   24.2370 C   0  0  0  0  0  0  0  0  0  0  0  0
   53.8070   81.0490   24.9710 C   0  0  0  0  0  0  0  0  0  0  0  0
   54.7490   80.9170   26.0070 N   0  0  0  0  0  0  0  0  0  0  0  0
   54.8900   79.7150   26.3220 N   0  0  0  0  0  0  0  0  0  0  0  0
   55.8180   79.5820   27.3700 C   0  0  0  0  0  0  0  0  0  0  0  0
   55.5390   78.8220   28.5130 C   0  0  0  0  0  0  0  0  0  0  0  0
   56.4700   78.7310   29.5520 C   0  0  0  0  0  0  0  0  0  0  0  0
   57.6960   79.3990   29.4650 C   0  0  0  0  0  0  0  0  0  0  0  0
   58.6140   79.3380   30.5270 N   0  0  0  0  0  0  0  0  0  0  0  0
   59.2100   80.3940   30.8600 N   0  0  0  0  0  0  0  0  0  0  0  0
   58.9480   81.5440   30.1070 N   0  0  0  0  0  0  0  0  0  0  0  0
   59.8580   82.4050   30.0880 N   0  0  0  0  0  0  0  0  0  0  0  0
   60.9900   82.1140   30.8480 N   0  0  0  0  0  0  0  0  0  0  0  0
   61.3590   83.1470   31.5290 C   0  0  0  0  0  0  0  0  0  0  0  0
   62.5120   83.1660   32.4350 C   0  0  0  0  0  0  0  0  0  0  0  0
   62.5070   82.6010   33.8190 C   0  0  0  0  0  0  0  0  0  0  0  0
   61.5980   82.0250   34.3860 O   0  0  0  0  0  0  0  0  0  0  0  0
   63.7350   82.9010   34.3660 N   0  0  0  0  0  0  0  0  0  0  0  0
   64.4830   83.6010   33.4900 C   0  0  0  0  0  0  0  0  0  0  0  0
   65.6860   84.1500   33.6690 C   0  0  0  0  0  0  0  0  0  0  0  0
   66.2880   84.9220   32.5900 C   0  0  0  0  0  0  0  0  0  0  0  0
   65.7060   85.0630   31.3780 C   0  0  0  0  0  0  0  0  0  0  0  0
   66.2770   85.7600   30.3280 N   0  0  0  0  0  0  0  0  0  0  0  0
   65.7500   85.7510   29.0620 C   0  0  0  0  0  0  0  0  0  0  0  0
   64.6090   85.1070   28.7760 C   0  0  0  0  0  0  0  0  0  0  0  0
   63.9070   84.4100   29.8450 C   0  0  0  0  0  0  0  0  0  0  0  0
   64.3760   84.3990   31.1160 C   0  0  0  0  0  0  0  0  0  0  0  0
   63.7260   83.7240   32.2510 C   0  0  0  0  0  0  0  0  0  0  0  0
   57.9640   80.1840   28.3380 C   0  0  0  0  0  0  0  0  0  0  0  0
   57.0330   80.2730   27.2980 C   0  0  0  0  0  0  0  0  0  0  0  0
   53.3370   82.3250   24.6330 C   0  0  0  0  0  0  0  0  0  0  0  0
   52.4230   82.4960   23.5900 C   0  0  0  0  0  0  0  0  0  0  0  0
   48.6410   81.1070   21.5900 H   0  0  0  0  0  0  0  0  0  0  0  0
   49.4750   80.1190   22.6810 H   0  0  0  0  0  0  0  0  0  0  0  0
   52.0871   79.2251   22.6305 H   0  0  0  0  0  0  0  0  0  0  0  0
   53.7311   78.9353   24.4862 H   0  0  0  0  0  0  0  0  0  0  0  0
   54.5786   78.2919   28.5939 H   0  0  0  0  0  0  0  0  0  0  0  0
   56.2370   78.1303   30.4436 H   0  0  0  0  0  0  0  0  0  0  0  0
   60.7716   84.0710   31.4229 H   0  0  0  0  0  0  0  0  0  0  0  0
   63.9790   82.6650   35.3160 H   0  0  0  0  0  0  0  0  0  0  0  0
   66.2185   84.0208   34.6228 H   0  0  0  0  0  0  0  0  0  0  0  0
   67.2570   85.4108   32.7691 H   0  0  0  0  0  0  0  0  0  0  0  0
   67.1950   86.1640   30.4640 H   0  0  0  0  0  0  0  0  0  0  0  0
   66.2776   86.2867   28.2591 H   0  0  0  0  0  0  0  0  0  0  0  0
   64.2099   85.1052   27.7510 H   0  0  0  0  0  0  0  0  0  0  0  0
   62.9718   83.8788   29.6144 H   0  0  0  0  0  0  0  0  0  0  0  0
   58.9136   80.7350   28.2695 H   0  0  0  0  0  0  0  0  0  0  0  0
   57.2576   80.8912   26.4163 H   0  0  0  0  0  0  0  0  0  0  0  0
   53.6914   83.2017   25.1949 H   0  0  0  0  0  0  0  0  0  0  0  0
   52.0486   83.4993   23.3387 H   0  0  0  0  0  0  0  0  0  0  0  0
  1  2  1  0
  2  3  2  0
  2  4  2  0
  2  5  1  0
  5  6  1  0
  6  7  2  0
  7  8  1  0
  8  9  1  0
  9 10  2  3
 10 11  1  0
 11 12  1  0
 12 13  2  0
 13 14  1  0
 14 15  1  0
 15 16  2  3
 16 17  1  0
 17 18  2  3
 18 19  1  0
 19 20  2  3
 20 21  1  0
 21 22  1  0
 22 23  2  0
 22 24  1  0
 24 25  1  0
 25 26  2  0
 26 27  1  0
 27 28  2  0
 28 29  1  0
 29 30  1  0
 30 31  2  0
 31 32  1  0
 32 33  2  0
 33 34  1  0
 14 35  2  0
 35 36  1  0
  8 37  2  0
 37 38  1  0
 38  5  2  0
 36 11  2  0
 34 21  2  0
 34 25  1  0
 33 28  1  0
  1 39  1  0
  1 40  1  0
  6 41  1  0
  7 42  1  0
 12 43  1  0
 13 44  1  0
 20 45  1  0
 24 46  1  0
 26 47  1  0
 27 48  1  0
 29 49  1  0
 30 50  1  0
 31 51  1  0
 32 52  1  0
 35 53  1  0
 36 54  1  0
 37 55  1  0
 38 56  1  0
M  END
>  <meeko>  (1) 
{"is_sidechain": false}

>  <smiles>  (1) 
NS(=O)(=O)c1ccc(N=Nc2ccc(N=NN=NN=Cc3c(=O)[nH]c4ccc5[nH]cccc5c34)cc2)cc1

>  <vina_score>  (1) 
-8.899

>  <job_id>  (1) 
1cb788c1cef92ad1

$$$$
