
     RDKit          3D

 56 57  0  0  0  0  0  0  0  0999 V2000
   54.0600   78.7210   24.7120 C   0  0  0  0  0  0  0  0  0  0  0  0
   53.2550   79.7220   25.5100 C   0  0  1  0  0  0  0  0  0  0  0  0
   53.3070   79.4830   26.8990 O   0  0  0  0  0  0  0  0  0  0  0  0
   54.3900   78.8360   27.5080 C   0  0  0  0  0  0  0  0  0  0  0  0
   55.5780   79.4820   27.5520 N   0  0  0  0  0  0  0  0  0  0  0  0
   56.6890   78.9580   28.1120 C   0  0  0  0  0  0  0  0  0  0  0  0
   57.8790   79.7260   28.1370 N   0  0  0  0  0  0  0  0  0  0  0  0
   58.4780   80.2730   29.2920 C   0  0  0  0  0  0  0  0  0  0  0  0
   59.5740   81.1070   29.1540 C   0  0  0  0  0  0  0  0  0  0  0  0
   60.2120   81.6800   30.2390 C   0  0  0  0  0  0  0  0  0  0  0  0
   59.7920   81.4510   31.5270 C   0  0  0  0  0  0  0  0  0  0  0  0
   60.5430   82.1780   32.9210 S   0  0  0  0  0  0  0  0  0  0  0  0
   59.6550   83.3530   33.3310 O   0  0  0  0  0  0  0  0  0  0  0  0
   61.8320   82.8140   32.4680 O   0  0  0  0  0  0  0  0  0  0  0  0
   60.8020   81.1420   34.2850 S   0  0  0  0  0  6  0  0  0  0  0  0
   61.1850   79.7600   33.5940 N   0  0  0  0  0  0  0  0  0  0  0  0
   59.3160   80.9800   34.9270 O   0  0  0  0  0  0  0  0  0  0  0  0
   62.3220   81.7040   35.0460 S   0  0  0  0  0  0  0  0  0  0  0  0
   63.6790   81.3920   34.0200 N   0  0  0  0  0  0  0  0  0  0  0  0
   62.3310   83.1870   35.3090 O   0  0  0  0  0  0  0  0  0  0  0  0
   62.5270   80.9850   36.3410 O   0  0  0  0  0  0  0  0  0  0  0  0
   58.6830   80.6070   31.6860 C   0  0  0  0  0  0  0  0  0  0  0  0
   58.0530   80.0380   30.5820 C   0  0  0  0  0  0  0  0  0  0  0  0
   56.5710   77.7310   28.6420 N   0  0  0  0  0  0  0  0  0  0  0  0
   55.4170   77.0450   28.6260 C   0  0  0  0  0  0  0  0  0  0  0  0
   54.2640   77.5770   28.0500 C   0  0  0  0  0  0  0  0  0  0  0  0
   52.9760   76.8550   28.0190 C   0  0  0  0  0  0  0  0  0  0  0  0
   53.1320   75.6270   28.6260 F   0  0  0  0  0  0  0  0  0  0  0  0
   52.7000   76.5940   26.6670 F   0  0  0  0  0  0  0  0  0  0  0  0
   51.9150   77.5600   28.4890 F   0  0  0  0  0  0  0  0  0  0  0  0
   53.6550   81.1400   25.1780 C   0  0  0  0  0  0  0  0  0  0  0  0
   53.2850   82.0990   26.2960 C   0  0  0  0  0  0  0  0  0  0  0  0
   53.0010   81.6310   23.9150 C   0  0  0  0  0  0  0  0  0  0  0  0
   55.0470   81.2660   25.0200 O   0  0  0  0  0  0  0  0  0  0  0  0
   54.5982   78.0518   25.3995 H   0  0  0  0  0  0  0  0  0  0  0  0
   53.3838   78.1287   24.0780 H   0  0  0  0  0  0  0  0  0  0  0  0
   54.7836   79.2544   24.0780 H   0  0  0  0  0  0  0  0  0  0  0  0
   52.2050   79.5867   25.2112 H   0  0  0  0  0  0  0  0  0  0  0  0
   58.3650   79.9080   27.2080 H   0  0  0  0  0  0  0  0  0  0  0  0
   59.9517   81.3221   28.1435 H   0  0  0  0  0  0  0  0  0  0  0  0
   61.0780   82.3360   30.0664 H   0  0  0  0  0  0  0  0  0  0  0  0
   60.1680   80.6440   35.3130 H   0  0  0  0  0  0  0  0  0  0  0  0
   61.4220   78.9110   34.1490 H   0  0  0  0  0  0  0  0  0  0  0  0
   60.6650   79.5350   32.7110 H   0  0  0  0  0  0  0  0  0  0  0  0
   64.1260   82.2780   33.6930 H   0  0  0  0  0  0  0  0  0  0  0  0
   63.3970   80.8680   33.1620 H   0  0  0  0  0  0  0  0  0  0  0  0
   58.3057   80.3916   32.6966 H   0  0  0  0  0  0  0  0  0  0  0  0
   57.1874   79.3791   30.7449 H   0  0  0  0  0  0  0  0  0  0  0  0
   55.3804   76.0423   29.0767 H   0  0  0  0  0  0  0  0  0  0  0  0
   53.4705   81.6183   27.2678 H   0  0  0  0  0  0  0  0  0  0  0  0
   53.8962   83.0100   26.2150 H   0  0  0  0  0  0  0  0  0  0  0  0
   52.2203   82.3634   26.2150 H   0  0  0  0  0  0  0  0  0  0  0  0
   52.1455   82.2733   24.1709 H   0  0  0  0  0  0  0  0  0  0  0  0
   53.7289   82.2076   23.3254 H   0  0  0  0  0  0  0  0  0  0  0  0
   52.6505   80.7711   23.3254 H   0  0  0  0  0  0  0  0  0  0  0  0
   55.4620   81.3480   25.9050 H   0  0  0  0  0  0  0  0  0  0  0  0
  1  2  1  0
  2  3  1  0
  3  4  1  0
  4  5  2  0
  5  6  1  0
  6  7  1  0
  7  8  1  0
  8  9  1  0
  9 10  2  0
 10 11  1  0
 11 12  1  0
 12 13  2  0
 12 14  2  0
 12 15  1  0
 15 16  1  0
 15 17  2  0
 15 18  1  0
 18 19  1  0
 18 20  2  0
 18 21  2  0
 11 22  2  0
 22 23  1  0
  6 24  2  0
 24 25  1  0
 25 26  2  0
 26 27  1  0
 27 28  1  0
 27 29  1  0
 27 30  1  0
  2 31  1  0
 31 32  1  0
 31 33  1  0
 31 34  1  0
 26  4  1  0
 23  8  2  0
  1 35  1  0
  1 36  1  0
  1 37  1  0
  2 38  1  6
  7 39  1  0
  9 40  1  0
 10 41  1  0
 15 42  1  0
 16 43  1  0
 16 44  1  0
 19 45  1  0
 19 46  1  0
 22 47  1  0
 23 48  1  0
 25 49  1  0
 32 50  1  0
 32 51  1  0
 32 52  1  0
 33 53  1  0
 33 54  1  0
 33 55  1  0
 34 56  1  0
M  END
>  <meeko>  (1) 
{"is_sidechain": false}

>  <smiles>  (1) 
C[C@@H](Oc1nc(Nc2ccc(S(=O)(=O)[SH](N)(=O)S(N)(=O)=O)cc2)ncc1C(F)(F)F)C(C)(C)O

>  <vina_score>  (1) 
-8.407

>  <job_id>  (1) 
1ccb3fc2166e674d

$$$$
