
     RDKit          3D

 44 47  0  0  0  0  0  0  0  0999 V2000
   63.2470   82.3270   31.0200 C   0  0  0  0  0  0  0  0  0  0  0  0
   62.1280   82.8580   30.2730 N   0  0  0  0  0  0  0  0  0  0  0  0
   60.9350   82.1320   30.4010 C   0  0  0  0  0  0  0  0  0  0  0  0
   60.4490   81.4180   29.3300 N   0  0  0  0  0  0  0  0  0  0  0  0
   59.3100   80.7260   29.5290 C   0  0  0  0  0  0  0  0  0  0  0  0
   58.5090   79.7650   28.3860 S   0  0  0  0  0  0  0  0  0  0  0  0
   57.2800   79.3890   29.5690 C   0  0  0  0  0  0  0  0  0  0  0  0
   56.1510   78.4900   29.2430 C   0  0  0  0  0  0  0  0  0  0  0  0
   56.0410   77.2680   29.9280 C   0  0  0  0  0  0  0  0  0  0  0  0
   54.9920   76.3840   29.6690 C   0  0  0  0  0  0  0  0  0  0  0  0
   54.0270   76.7070   28.7180 C   0  0  0  0  0  0  0  0  0  0  0  0
   54.1070   77.9140   28.0160 C   0  0  0  0  0  0  0  0  0  0  0  0
   53.0510   78.2900   27.0070 C   0  0  0  0  0  0  0  0  0  0  0  0
   53.2940   79.6140   26.4800 N   0  0  0  0  0  0  0  0  0  0  0  0
   53.2510   79.8730   25.1310 C   0  0  0  0  0  0  0  0  0  0  0  0
   53.6510   81.2760   24.7620 C   0  0  0  0  0  0  0  0  0  0  0  0
   52.9330   79.0440   24.2850 O   0  0  0  0  0  0  0  0  0  0  0  0
   55.1660   78.8010   28.2910 C   0  0  0  0  0  0  0  0  0  0  0  0
   57.4560   79.9370   30.7650 N   0  0  0  0  0  0  0  0  0  0  0  0
   58.6010   80.6840   30.7040 C   0  0  0  0  0  0  0  0  0  0  0  0
   59.0790   81.3990   31.7540 C   0  0  0  0  0  0  0  0  0  0  0  0
   60.2350   82.1320   31.6450 C   0  0  0  0  0  0  0  0  0  0  0  0
   60.4710   82.7640   32.8520 N   0  0  0  0  0  0  0  0  0  0  0  0
   59.4780   82.3870   33.6380 C   0  0  0  0  0  0  0  0  0  0  0  0
   58.5990   81.5460   32.9960 N   0  0  0  0  0  0  0  0  0  0  0  0
   57.4170   80.9670   33.5780 C   0  0  0  0  0  0  0  0  0  0  0  0
   63.0468   82.4220   32.0974 H   0  0  0  0  0  0  0  0  0  0  0  0
   63.3876   81.2662   30.7653 H   0  0  0  0  0  0  0  0  0  0  0  0
   64.1577   82.8890   30.7653 H   0  0  0  0  0  0  0  0  0  0  0  0
   62.3060   83.0430   29.2860 H   0  0  0  0  0  0  0  0  0  0  0  0
   56.7960   77.0029   30.6828 H   0  0  0  0  0  0  0  0  0  0  0  0
   54.9275   75.4320   30.2162 H   0  0  0  0  0  0  0  0  0  0  0  0
   53.1993   76.0105   28.5184 H   0  0  0  0  0  0  0  0  0  0  0  0
   53.0669   77.5642   26.1806 H   0  0  0  0  0  0  0  0  0  0  0  0
   52.0696   78.2825   27.5038 H   0  0  0  0  0  0  0  0  0  0  0  0
   53.7450   80.2820   27.0910 H   0  0  0  0  0  0  0  0  0  0  0  0
   53.8182   81.8624   25.6775 H   0  0  0  0  0  0  0  0  0  0  0  0
   54.5773   81.2493   24.1694 H   0  0  0  0  0  0  0  0  0  0  0  0
   52.8499   81.7418   24.1694 H   0  0  0  0  0  0  0  0  0  0  0  0
   55.2229   79.7567   27.7493 H   0  0  0  0  0  0  0  0  0  0  0  0
   59.3672   82.7084   34.6842 H   0  0  0  0  0  0  0  0  0  0  0  0
   57.4925   81.0040   34.6748 H   0  0  0  0  0  0  0  0  0  0  0  0
   56.5324   81.5338   33.2520 H   0  0  0  0  0  0  0  0  0  0  0  0
   57.3226   79.9207   33.2520 H   0  0  0  0  0  0  0  0  0  0  0  0
  1  2  1  0
  2  3  1  0
  3  4  2  0
  4  5  1  0
  5  6  1  0
  6  7  1  0
  7  8  1  0
  8  9  1  0
  9 10  2  0
 10 11  1  0
 11 12  2  0
 12 13  1  0
 13 14  1  0
 14 15  1  0
 15 16  1  0
 15 17  2  0
 12 18  1  0
  7 19  2  0
 19 20  1  0
 20 21  1  0
 21 22  2  0
 22 23  1  0
 23 24  2  0
 24 25  1  0
 25 26  1  0
 22  3  1  0
 20  5  2  0
 25 21  1  0
 18  8  2  0
  1 27  1  0
  1 28  1  0
  1 29  1  0
  2 30  1  0
  9 31  1  0
 10 32  1  0
 11 33  1  0
 13 34  1  0
 13 35  1  0
 14 36  1  0
 16 37  1  0
 16 38  1  0
 16 39  1  0
 18 40  1  0
 24 41  1  0
 26 42  1  0
 26 43  1  0
 26 44  1  0
M  END
>  <meeko>  (1) 
{"is_sidechain": false}

>  <smiles>  (1) 
CNc1nc2sc(-c3cccc(CNC(C)=O)c3)nc2c2c1ncn2C

>  <vina_score>  (1) 
-8.035

>  <job_id>  (1) 
1cd3f5eb85ce0614

$$$$
