
     RDKit          3D

 34 35  0  0  0  0  0  0  0  0999 V2000
   53.6850   78.3580   24.8640 C   0  0  0  0  0  0  0  0  0  0  0  0
   53.5170   79.7480   25.4100 C   0  0  0  0  0  0  0  0  0  0  0  0
   53.0020   80.7500   24.5730 C   0  0  0  0  0  0  0  0  0  0  0  0
   52.7950   82.0470   25.0520 C   0  0  0  0  0  0  0  0  0  0  0  0
   53.0980   82.3640   26.3730 C   0  0  0  0  0  0  0  0  0  0  0  0
   53.6270   81.3880   27.2160 C   0  0  0  0  0  0  0  0  0  0  0  0
   53.8550   80.0920   26.7330 C   0  0  0  0  0  0  0  0  0  0  0  0
   54.4720   79.1270   27.6780 C   0  0  0  0  0  0  0  0  0  0  0  0
   53.7530   78.5360   28.4710 O   0  0  0  0  0  0  0  0  0  0  0  0
   55.8460   79.0540   27.5790 N   0  0  0  0  0  0  0  0  0  0  0  0
   56.6640   78.3560   28.4510 C   0  0  0  0  0  0  0  0  0  0  0  0
   56.3100   77.4080   29.1470 O   0  0  0  0  0  0  0  0  0  0  0  0
   58.1340   78.7470   28.3820 C   0  0  0  0  0  0  0  0  0  0  0  0
   58.5340   79.8820   29.2960 C   0  0  0  0  0  0  0  0  0  0  0  0
   59.2510   80.9820   28.7990 C   0  0  0  0  0  0  0  0  0  0  0  0
   59.6000   82.0410   29.6420 C   0  0  0  0  0  0  0  0  0  0  0  0
   59.2390   82.0100   30.9870 C   0  0  0  0  0  0  0  0  0  0  0  0
   58.5370   80.9170   31.4820 C   0  0  0  0  0  0  0  0  0  0  0  0
   58.1910   80.8860   32.7750 F   0  0  0  0  0  0  0  0  0  0  0  0
   58.1840   79.8570   30.6530 C   0  0  0  0  0  0  0  0  0  0  0  0
   53.7712   77.6448   25.6970 H   0  0  0  0  0  0  0  0  0  0  0  0
   52.8117   78.0981   24.2477 H   0  0  0  0  0  0  0  0  0  0  0  0
   54.5950   78.3137   24.2477 H   0  0  0  0  0  0  0  0  0  0  0  0
   52.7582   80.5119   23.5271 H   0  0  0  0  0  0  0  0  0  0  0  0
   52.3910   82.8203   24.3821 H   0  0  0  0  0  0  0  0  0  0  0  0
   52.9205   83.3818   26.7507 H   0  0  0  0  0  0  0  0  0  0  0  0
   53.8657   81.6350   28.2610 H   0  0  0  0  0  0  0  0  0  0  0  0
   56.2820   79.7640   27.0070 H   0  0  0  0  0  0  0  0  0  0  0  0
   58.7350   77.8652   28.6490 H   0  0  0  0  0  0  0  0  0  0  0  0
   58.3114   79.1003   27.3555 H   0  0  0  0  0  0  0  0  0  0  0  0
   59.5403   81.0107   27.7381 H   0  0  0  0  0  0  0  0  0  0  0  0
   60.1601   82.8995   29.2430 H   0  0  0  0  0  0  0  0  0  0  0  0
   59.5073   82.8439   31.6523 H   0  0  0  0  0  0  0  0  0  0  0  0
   57.6302   78.9993   31.0625 H   0  0  0  0  0  0  0  0  0  0  0  0
  1  2  1  0
  2  3  2  0
  3  4  1  0
  4  5  2  0
  5  6  1  0
  6  7  2  0
  7  8  1  0
  8  9  2  0
  8 10  1  0
 10 11  1  0
 11 12  2  0
 11 13  1  0
 13 14  1  0
 14 15  2  0
 15 16  1  0
 16 17  2  0
 17 18  1  0
 18 19  1  0
 18 20  2  0
  7  2  1  0
 20 14  1  0
  1 21  1  0
  1 22  1  0
  1 23  1  0
  3 24  1  0
  4 25  1  0
  5 26  1  0
  6 27  1  0
 10 28  1  0
 13 29  1  0
 13 30  1  0
 15 31  1  0
 16 32  1  0
 17 33  1  0
 20 34  1  0
M  END
>  <meeko>  (1) 
{"is_sidechain": false}

>  <smiles>  (1) 
Cc1ccccc1C(=O)NC(=O)Cc1cccc(F)c1

>  <vina_score>  (1) 
-8.144

>  <job_id>  (1) 
1d23dace69a57cd5

$$$$
