
     RDKit          3D

 59 61  0  0  0  0  0  0  0  0999 V2000
   53.3100   78.7350   24.1670 C   0  0  0  0  0  0  0  0  0  0  0  0
   52.6690   78.9590   25.4150 O   0  0  0  0  0  0  0  0  0  0  0  0
   53.2560   78.4090   26.5210 C   0  0  0  0  0  0  0  0  0  0  0  0
   52.7650   77.3330   27.2590 C   0  0  0  0  0  0  0  0  0  0  0  0
   53.4690   76.8700   28.3720 C   0  0  0  0  0  0  0  0  0  0  0  0
   54.6670   77.4800   28.7530 C   0  0  0  0  0  0  0  0  0  0  0  0
   55.1800   78.5610   28.0240 C   0  0  0  0  0  0  0  0  0  0  0  0
   56.4400   79.2120   28.4090 C   0  0  0  0  0  0  0  0  0  0  0  0
   57.1830   79.0530   29.6180 C   0  0  0  0  0  0  0  0  0  0  0  0
   58.2810   79.8690   29.4940 C   0  0  0  0  0  0  0  0  0  0  0  0
   59.3250   80.0910   30.3670 N   0  0  0  0  0  0  0  0  0  0  0  0
   59.7900   81.3610   30.6390 C   0  0  0  0  0  0  0  0  0  0  0  0
   59.3220   82.3960   30.1740 O   0  0  0  0  0  0  0  0  0  0  0  0
   60.8520   81.3350   31.5170 N   0  0  0  0  0  0  0  0  0  0  0  0
   61.5410   82.5670   31.8860 C   0  0  0  0  0  0  0  0  0  0  0  0
   62.7770   82.2490   32.7280 C   0  0  0  0  0  0  0  0  0  0  0  0
   63.5230   83.5230   33.1010 C   0  0  0  0  0  0  0  0  0  0  0  0
   63.8190   84.3460   31.9360 N   0  0  0  0  0  0  0  0  0  0  0  0
   64.9280   85.1860   32.0080 C   0  0  0  0  0  0  0  0  0  0  0  0
   65.7630   85.1260   32.9030 O   0  0  0  0  0  0  0  0  0  0  0  0
   64.9730   86.0680   30.9770 O   0  0  0  0  0  0  0  0  0  0  0  0
   65.8570   85.8570   29.8470 C   0  0  0  0  0  0  0  0  0  0  0  0
   66.6860   84.5780   30.0150 C   0  0  0  0  0  0  0  0  0  0  0  0
   65.0850   85.8710   28.5230 C   0  0  0  0  0  0  0  0  0  0  0  0
   66.8100   87.0630   29.8700 C   0  0  0  0  0  0  0  0  0  0  0  0
   62.7060   84.6320   31.0330 C   0  0  0  0  0  0  0  0  0  0  0  0
   61.9470   83.3690   30.6450 C   0  0  0  0  0  0  0  0  0  0  0  0
   58.1550   80.4650   28.2690 N   0  0  0  0  0  0  0  0  0  0  0  0
   57.0610   80.0800   27.5920 N   0  0  0  0  0  0  0  0  0  0  0  0
   54.4570   79.0140   26.9090 C   0  0  0  0  0  0  0  0  0  0  0  0
   54.3354   78.3767   24.3406 H   0  0  0  0  0  0  0  0  0  0  0  0
   52.7491   77.9796   23.5971 H   0  0  0  0  0  0  0  0  0  0  0  0
   53.3417   79.6753   23.5971 H   0  0  0  0  0  0  0  0  0  0  0  0
   51.8224   76.8486   26.9642 H   0  0  0  0  0  0  0  0  0  0  0  0
   53.0787   76.0207   28.9520 H   0  0  0  0  0  0  0  0  0  0  0  0
   55.2122   77.1082   29.6331 H   0  0  0  0  0  0  0  0  0  0  0  0
   56.9284   78.4094   30.4729 H   0  0  0  0  0  0  0  0  0  0  0  0
   59.6930   79.3090   30.8870 H   0  0  0  0  0  0  0  0  0  0  0  0
   61.4100   80.4940   31.4990 H   0  0  0  0  0  0  0  0  0  0  0  0
   60.8453   83.1792   32.4786 H   0  0  0  0  0  0  0  0  0  0  0  0
   62.4634   81.7330   33.6475 H   0  0  0  0  0  0  0  0  0  0  0  0
   63.4488   81.6084   32.1379 H   0  0  0  0  0  0  0  0  0  0  0  0
   62.9033   84.1056   33.7985 H   0  0  0  0  0  0  0  0  0  0  0  0
   64.4785   83.2331   33.5625 H   0  0  0  0  0  0  0  0  0  0  0  0
   66.8224   84.3675   31.0860 H   0  0  0  0  0  0  0  0  0  0  0  0
   66.1615   83.7360   29.5397 H   0  0  0  0  0  0  0  0  0  0  0  0
   67.6688   84.7130   29.5397 H   0  0  0  0  0  0  0  0  0  0  0  0
   64.0046   85.8906   28.7287 H   0  0  0  0  0  0  0  0  0  0  0  0
   65.3645   86.7642   27.9450 H   0  0  0  0  0  0  0  0  0  0  0  0
   65.3319   84.9682   27.9450 H   0  0  0  0  0  0  0  0  0  0  0  0
   67.0277   87.3385   30.9125 H   0  0  0  0  0  0  0  0  0  0  0  0
   67.7468   86.7999   29.3570 H   0  0  0  0  0  0  0  0  0  0  0  0
   66.3374   87.9136   29.3570 H   0  0  0  0  0  0  0  0  0  0  0  0
   62.0121   85.3240   31.5326 H   0  0  0  0  0  0  0  0  0  0  0  0
   63.1186   85.0761   30.1151 H   0  0  0  0  0  0  0  0  0  0  0  0
   61.0418   83.6508   30.0872 H   0  0  0  0  0  0  0  0  0  0  0  0
   62.6043   82.7430   30.0237 H   0  0  0  0  0  0  0  0  0  0  0  0
   58.7900   81.1430   27.8580 H   0  0  0  0  0  0  0  0  0  0  0  0
   54.8432   79.8638   26.3271 H   0  0  0  0  0  0  0  0  0  0  0  0
  1  2  1  0
  2  3  1  0
  3  4  1  0
  4  5  2  0
  5  6  1  0
  6  7  2  0
  7  8  1  0
  8  9  1  0
  9 10  2  0
 10 11  1  0
 11 12  1  0
 12 13  2  0
 12 14  1  0
 14 15  1  0
 15 16  1  0
 16 17  1  0
 17 18  1  0
 18 19  1  0
 19 20  2  0
 19 21  1  0
 21 22  1  0
 22 23  1  0
 22 24  1  0
 22 25  1  0
 18 26  1  0
 26 27  1  0
 10 28  1  0
 28 29  1  0
  7 30  1  0
 30  3  2  0
 29  8  2  0
 27 15  1  0
  1 31  1  0
  1 32  1  0
  1 33  1  0
  4 34  1  0
  5 35  1  0
  6 36  1  0
  9 37  1  0
 11 38  1  0
 14 39  1  0
 15 40  1  0
 16 41  1  0
 16 42  1  0
 17 43  1  0
 17 44  1  0
 23 45  1  0
 23 46  1  0
 23 47  1  0
 24 48  1  0
 24 49  1  0
 24 50  1  0
 25 51  1  0
 25 52  1  0
 25 53  1  0
 26 54  1  0
 26 55  1  0
 27 56  1  0
 27 57  1  0
 28 58  1  0
 30 59  1  0
M  END
>  <meeko>  (1) 
{"is_sidechain": false}

>  <smiles>  (1) 
COc1cccc(-c2cc(NC(=O)NC3CCN(C(=O)OC(C)(C)C)CC3)[nH]n2)c1

>  <vina_score>  (1) 
-8.144

>  <job_id>  (1) 
1d2e2563a0ffe38c

$$$$
