
     RDKit          3D

 42 45  0  0  0  0  0  0  0  0999 V2000
   53.3100   82.6590   27.1690 C   0  0  0  0  0  0  0  0  0  0  0  0
   53.3080   81.2400   27.2660 O   0  0  0  0  0  0  0  0  0  0  0  0
   53.1760   80.5200   26.1040 C   0  0  0  0  0  0  0  0  0  0  0  0
   52.5600   81.0130   24.9470 C   0  0  0  0  0  0  0  0  0  0  0  0
   52.5120   80.2320   23.7970 C   0  0  0  0  0  0  0  0  0  0  0  0
   51.9220   80.7180   22.6980 F   0  0  0  0  0  0  0  0  0  0  0  0
   53.0730   78.9650   23.7660 C   0  0  0  0  0  0  0  0  0  0  0  0
   53.6850   78.4640   24.9130 C   0  0  0  0  0  0  0  0  0  0  0  0
   53.7360   79.2190   26.1060 C   0  0  0  0  0  0  0  0  0  0  0  0
   54.3850   78.6330   27.2940 C   0  0  0  0  0  0  0  0  0  0  0  0
   55.6270   79.1080   27.5640 N   0  0  0  0  0  0  0  0  0  0  0  0
   56.2520   78.5990   28.6450 C   0  0  0  0  0  0  0  0  0  0  0  0
   57.6380   79.1070   28.9720 C   0  0  0  0  0  0  0  0  0  0  0  0
   58.5670   78.9110   28.2000 O   0  0  0  0  0  0  0  0  0  0  0  0
   57.6730   79.7670   30.1890 N   0  0  0  0  0  0  0  0  0  0  0  0
   58.7800   80.3390   30.7710 C   0  0  0  0  0  0  0  0  0  0  0  0
   59.0740   80.2410   32.1550 C   0  0  0  0  0  0  0  0  0  0  0  0
   60.2470   80.9320   32.3180 C   0  0  0  0  0  0  0  0  0  0  0  0
   61.0190   81.1650   33.6330 C   0  0  0  0  0  0  0  0  0  0  0  0
   62.1050   80.1960   34.0200 C   0  0  0  0  0  0  0  0  0  0  0  0
   60.8110   80.2120   34.7800 C   0  0  0  0  0  0  0  0  0  0  0  0
   60.5820   81.4030   31.0860 N   0  0  0  0  0  0  0  0  0  0  0  0
   59.7100   81.0500   30.1330 N   0  0  0  0  0  0  0  0  0  0  0  0
   55.7510   77.6460   29.4730 N   0  0  0  0  0  0  0  0  0  0  0  0
   54.5240   77.1890   29.1450 C   0  0  0  0  0  0  0  0  0  0  0  0
   53.8010   77.6430   28.0660 C   0  0  0  0  0  0  0  0  0  0  0  0
   52.6090   77.1050   27.7810 F   0  0  0  0  0  0  0  0  0  0  0  0
   53.3106   83.0955   28.1787 H   0  0  0  0  0  0  0  0  0  0  0  0
   54.2086   82.9882   26.6267 H   0  0  0  0  0  0  0  0  0  0  0  0
   52.4123   82.9907   26.6267 H   0  0  0  0  0  0  0  0  0  0  0  0
   52.1138   82.0185   24.9476 H   0  0  0  0  0  0  0  0  0  0  0  0
   53.0355   78.3621   22.8467 H   0  0  0  0  0  0  0  0  0  0  0  0
   54.1371   77.4615   24.8892 H   0  0  0  0  0  0  0  0  0  0  0  0
   56.7990   79.8290   30.6960 H   0  0  0  0  0  0  0  0  0  0  0  0
   58.4885   79.7233   32.9291 H   0  0  0  0  0  0  0  0  0  0  0  0
   60.9560   82.2558   33.5059 H   0  0  0  0  0  0  0  0  0  0  0  0
   62.3454   79.3482   33.3617 H   0  0  0  0  0  0  0  0  0  0  0  0
   63.1671   80.2868   34.2916 H   0  0  0  0  0  0  0  0  0  0  0  0
   60.1036   79.3758   34.6785 H   0  0  0  0  0  0  0  0  0  0  0  0
   60.5330   80.3193   35.8389 H   0  0  0  0  0  0  0  0  0  0  0  0
   61.3860   81.9640   30.8220 H   0  0  0  0  0  0  0  0  0  0  0  0
   54.0760   76.4082   29.7771 H   0  0  0  0  0  0  0  0  0  0  0  0
  1  2  1  0
  2  3  1  0
  3  4  1  0
  4  5  2  0
  5  6  1  0
  5  7  1  0
  7  8  2  0
  8  9  1  0
  9 10  1  0
 10 11  2  0
 11 12  1  0
 12 13  1  0
 13 14  2  0
 13 15  1  0
 15 16  1  0
 16 17  1  0
 17 18  2  0
 18 19  1  0
 19 20  1  0
 20 21  1  0
 18 22  1  0
 22 23  1  0
 12 24  2  0
 24 25  1  0
 25 26  2  0
 26 27  1  0
  9  3  2  0
 26 10  1  0
 23 16  2  0
 21 19  1  0
  1 28  1  0
  1 29  1  0
  1 30  1  0
  4 31  1  0
  7 32  1  0
  8 33  1  0
 15 34  1  0
 17 35  1  0
 19 36  1  0
 20 37  1  0
 20 38  1  0
 21 39  1  0
 21 40  1  0
 22 41  1  0
 25 42  1  0
M  END
>  <meeko>  (1) 
{"is_sidechain": false}

>  <smiles>  (1) 
COc1cc(F)ccc1-c1nc(C(=O)Nc2cc(C3CC3)[nH]n2)ncc1F

>  <vina_score>  (1) 
-8.731

>  <job_id>  (1) 
1dafde0278d29d76

$$$$
