
     RDKit          3D

 56 58  0  0  0  0  0  0  0  0999 V2000
   59.6990   82.6730   29.8940 C   0  0  0  0  0  0  0  0  0  0  0  0
   60.0600   81.4330   29.0910 C   0  0  0  0  0  0  0  0  0  0  0  0
   58.9560   80.3590   29.0420 C   0  0  1  0  0  0  0  0  0  0  0  0
   58.3270   80.0360   30.4300 C   0  0  0  0  0  0  0  0  0  0  0  0
   59.2340   79.6720   31.5260 N   0  0  0  0  0  0  0  0  0  0  0  0
   59.1470   80.6070   32.6430 C   0  0  0  0  0  0  0  0  0  0  0  0
   57.8760   80.8540   28.1730 N   0  0  0  0  0  0  0  0  0  0  0  0
   56.7200   80.1360   27.9140 C   0  0  0  0  0  0  0  0  0  0  0  0
   56.4870   79.0760   28.6440 N   0  0  0  0  0  0  0  0  0  0  0  0
   55.3600   78.3630   28.3980 C   0  0  0  0  0  0  0  0  0  0  0  0
   54.8840   77.2230   29.0030 C   0  0  0  0  0  0  0  0  0  0  0  0
   53.6850   76.9400   28.3490 C   0  0  0  0  0  0  0  0  0  0  0  0
   53.3970   77.8220   27.3960 N   0  0  0  0  0  0  0  0  0  0  0  0
   54.4360   78.7180   27.4080 N   0  0  0  0  0  0  0  0  0  0  0  0
   54.6410   79.8770   26.5920 C   0  0  0  0  0  0  0  0  0  0  0  0
   53.7020   80.2390   25.6050 N   0  0  0  0  0  0  0  0  0  0  0  0
   52.5280   81.1030   25.7280 C   0  0  2  0  0  0  0  0  0  0  0  0
   51.4420   80.6050   24.7620 C   0  0  0  0  0  0  0  0  0  0  0  0
   51.7820   80.7930   23.2790 C   0  0  0  0  0  0  0  0  0  0  0  0
   52.7400   81.9620   23.0100 C   0  0  1  0  0  0  0  0  0  0  0  0
   52.5460   82.4820   21.6580 N   0  0  0  0  0  0  0  0  0  0  0  0
   52.5600   83.0680   24.0450 C   0  0  0  0  0  0  0  0  0  0  0  0
   52.8880   82.5760   25.4600 C   0  0  0  0  0  0  0  0  0  0  0  0
   55.7690   80.6040   26.8100 C   0  0  0  0  0  0  0  0  0  0  0  0
   56.1820   81.8370   26.0600 C   0  0  0  0  0  0  0  0  0  0  0  0
   59.7650   82.4462   30.9683 H   0  0  0  0  0  0  0  0  0  0  0  0
   60.3978   83.4859   29.6472 H   0  0  0  0  0  0  0  0  0  0  0  0
   58.6731   82.9838   29.6472 H   0  0  0  0  0  0  0  0  0  0  0  0
   60.2823   81.7443   28.0597 H   0  0  0  0  0  0  0  0  0  0  0  0
   60.9216   80.9728   29.5969 H   0  0  0  0  0  0  0  0  0  0  0  0
   59.4263   79.4366   28.6707 H   0  0  0  0  0  0  0  0  0  0  0  0
   57.7658   80.9261   30.7508 H   0  0  0  0  0  0  0  0  0  0  0  0
   57.7253   79.1315   30.2571 H   0  0  0  0  0  0  0  0  0  0  0  0
   60.1920   79.6850   31.1720 H   0  0  0  0  0  0  0  0  0  0  0  0
   59.1987   80.0515   33.5910 H   0  0  0  0  0  0  0  0  0  0  0  0
   59.9826   81.3204   32.5900 H   0  0  0  0  0  0  0  0  0  0  0  0
   58.1941   81.1539   32.5900 H   0  0  0  0  0  0  0  0  0  0  0  0
   58.1980   81.4940   27.4580 H   0  0  0  0  0  0  0  0  0  0  0  0
   55.3482   76.6573   29.8243 H   0  0  0  0  0  0  0  0  0  0  0  0
   53.0458   76.0793   28.5951 H   0  0  0  0  0  0  0  0  0  0  0  0
   54.0380   80.1310   24.6550 H   0  0  0  0  0  0  0  0  0  0  0  0
   52.1453   81.0544   26.7581 H   0  0  0  0  0  0  0  0  0  0  0  0
   51.2833   79.5321   24.9457 H   0  0  0  0  0  0  0  0  0  0  0  0
   50.5445   81.2099   24.9584 H   0  0  0  0  0  0  0  0  0  0  0  0
   52.2498   79.8684   22.9098 H   0  0  0  0  0  0  0  0  0  0  0  0
   50.8401   81.0226   22.7594 H   0  0  0  0  0  0  0  0  0  0  0  0
   53.7703   81.5859   23.0940 H   0  0  0  0  0  0  0  0  0  0  0  0
   53.1830   83.2610   21.4910 H   0  0  0  0  0  0  0  0  0  0  0  0
   51.6050   82.8600   21.5630 H   0  0  0  0  0  0  0  0  0  0  0  0
   53.2290   83.9042   23.7938 H   0  0  0  0  0  0  0  0  0  0  0  0
   51.5077   83.3878   24.0273 H   0  0  0  0  0  0  0  0  0  0  0  0
   53.9686   82.7001   25.6241 H   0  0  0  0  0  0  0  0  0  0  0  0
   52.2744   83.1762   26.1479 H   0  0  0  0  0  0  0  0  0  0  0  0
   56.4475   82.6295   26.7752 H   0  0  0  0  0  0  0  0  0  0  0  0
   57.0522   81.6073   25.4276 H   0  0  0  0  0  0  0  0  0  0  0  0
   55.3490   82.1778   25.4276 H   0  0  0  0  0  0  0  0  0  0  0  0
  1  2  1  0
  2  3  1  0
  3  4  1  0
  4  5  1  0
  5  6  1  0
  3  7  1  0
  7  8  1  0
  8  9  2  0
  9 10  1  0
 10 11  2  0
 11 12  1  0
 12 13  2  0
 13 14  1  0
 14 15  1  0
 15 16  1  0
 16 17  1  0
 17 18  1  0
 18 19  1  0
 19 20  1  0
 20 21  1  0
 20 22  1  0
 22 23  1  0
 15 24  2  0
 24 25  1  0
 24  8  1  0
 14 10  1  0
 23 17  1  0
  1 26  1  0
  1 27  1  0
  1 28  1  0
  2 29  1  0
  2 30  1  0
  3 31  1  6
  4 32  1  0
  4 33  1  0
  5 34  1  0
  6 35  1  0
  6 36  1  0
  6 37  1  0
  7 38  1  0
 11 39  1  0
 12 40  1  0
 16 41  1  0
 17 42  1  6
 18 43  1  0
 18 44  1  0
 19 45  1  0
 19 46  1  0
 20 47  1  1
 21 48  1  0
 21 49  1  0
 22 50  1  0
 22 51  1  0
 23 52  1  0
 23 53  1  0
 25 54  1  0
 25 55  1  0
 25 56  1  0
M  END
>  <meeko>  (1) 
{"is_sidechain": false}

>  <smiles>  (1) 
CC[C@@H](CNC)Nc1nc2ccnn2c(N[C@H]2CC[C@H](N)CC2)c1C

>  <vina_score>  (1) 
-7.043

>  <job_id>  (1) 
1e21fbe45b15e2ac

$$$$
