
     RDKit          3D

 41 42  0  0  0  0  0  0  0  0999 V2000
   60.3100   80.5990   35.1970 C   0  0  0  0  0  0  0  0  0  0  0  0
   60.2980   80.6840   33.7580 N   0  0  0  0  0  0  0  0  0  0  0  0
   59.1390   81.0300   33.0910 C   0  0  0  0  0  0  0  0  0  0  0  0
   58.1020   81.3570   33.6550 O   0  0  0  0  0  0  0  0  0  0  0  0
   59.1910   80.9480   31.6060 C   0  0  0  0  0  0  0  0  0  0  0  0
   59.9110   81.9210   30.9100 C   0  0  0  0  0  0  0  0  0  0  0  0
   59.9660   81.8790   29.5190 C   0  0  0  0  0  0  0  0  0  0  0  0
   59.3100   80.8580   28.8250 C   0  0  0  0  0  0  0  0  0  0  0  0
   58.6080   79.8550   29.5050 C   0  0  0  0  0  0  0  0  0  0  0  0
   57.9190   78.8240   28.8420 N   0  0  0  0  0  0  0  0  0  0  0  0
   56.5490   78.6150   28.5990 C   0  0  0  0  0  0  0  0  0  0  0  0
   55.9300   77.4790   29.1450 C   0  0  0  0  0  0  0  0  0  0  0  0
   54.5770   77.2060   28.9150 C   0  0  0  0  0  0  0  0  0  0  0  0
   53.8230   78.0630   28.1190 C   0  0  0  0  0  0  0  0  0  0  0  0
   54.4330   79.1800   27.5460 C   0  0  0  0  0  0  0  0  0  0  0  0
   53.6470   80.1240   26.7210 C   0  0  0  0  0  0  0  0  0  0  0  0
   53.3100   81.1850   27.2420 O   0  0  0  0  0  0  0  0  0  0  0  0
   53.3110   79.7630   25.4180 N   0  0  0  0  0  0  0  0  0  0  0  0
   53.9870   78.7310   24.6450 C   0  0  0  0  0  0  0  0  0  0  0  0
   52.4230   80.6390   24.6730 C   0  0  0  0  0  0  0  0  0  0  0  0
   55.7820   79.4650   27.7950 C   0  0  0  0  0  0  0  0  0  0  0  0
   58.5520   79.9150   30.9050 C   0  0  0  0  0  0  0  0  0  0  0  0
   60.1683   81.6025   35.6248 H   0  0  0  0  0  0  0  0  0  0  0  0
   59.4961   79.9393   35.5321 H   0  0  0  0  0  0  0  0  0  0  0  0
   61.2747   80.1904   35.5321 H   0  0  0  0  0  0  0  0  0  0  0  0
   61.0020   80.1650   33.2520 H   0  0  0  0  0  0  0  0  0  0  0  0
   60.4333   82.7185   31.4588 H   0  0  0  0  0  0  0  0  0  0  0  0
   60.5252   82.6486   28.9668 H   0  0  0  0  0  0  0  0  0  0  0  0
   59.3459   80.8422   27.7257 H   0  0  0  0  0  0  0  0  0  0  0  0
   58.5180   78.0930   28.4750 H   0  0  0  0  0  0  0  0  0  0  0  0
   56.5207   76.7897   29.7662 H   0  0  0  0  0  0  0  0  0  0  0  0
   54.1104   76.3160   29.3624 H   0  0  0  0  0  0  0  0  0  0  0  0
   52.7560   77.8619   27.9430 H   0  0  0  0  0  0  0  0  0  0  0  0
   54.4590   78.0105   25.3291 H   0  0  0  0  0  0  0  0  0  0  0  0
   53.2551   78.2093   24.0109 H   0  0  0  0  0  0  0  0  0  0  0  0
   54.7577   79.1935   24.0109 H   0  0  0  0  0  0  0  0  0  0  0  0
   51.8203   81.2335   25.3754 H   0  0  0  0  0  0  0  0  0  0  0  0
   53.0189   81.3127   24.0398 H   0  0  0  0  0  0  0  0  0  0  0  0
   51.7574   80.0340   24.0398 H   0  0  0  0  0  0  0  0  0  0  0  0
   56.2410   80.3629   27.3555 H   0  0  0  0  0  0  0  0  0  0  0  0
   58.0000   79.1423   31.4602 H   0  0  0  0  0  0  0  0  0  0  0  0
  1  2  1  0
  2  3  1  0
  3  4  2  0
  3  5  1  0
  5  6  1  0
  6  7  2  0
  7  8  1  0
  8  9  2  0
  9 10  1  0
 10 11  1  0
 11 12  2  0
 12 13  1  0
 13 14  2  0
 14 15  1  0
 15 16  1  0
 16 17  2  0
 16 18  1  0
 18 19  1  0
 18 20  1  0
 15 21  2  0
  9 22  1  0
 22  5  2  0
 21 11  1  0
  1 23  1  0
  1 24  1  0
  1 25  1  0
  2 26  1  0
  6 27  1  0
  7 28  1  0
  8 29  1  0
 10 30  1  0
 12 31  1  0
 13 32  1  0
 14 33  1  0
 19 34  1  0
 19 35  1  0
 19 36  1  0
 20 37  1  0
 20 38  1  0
 20 39  1  0
 21 40  1  0
 22 41  1  0
M  END
>  <meeko>  (1) 
{"is_sidechain": false}

>  <smiles>  (1) 
CNC(=O)c1cccc(Nc2cccc(C(=O)N(C)C)c2)c1

>  <vina_score>  (1) 
-8.492

>  <job_id>  (1) 
1e23f0c6aab0a5e6

$$$$
