
     RDKit          3D

 48 50  0  0  0  0  0  0  0  0999 V2000
   65.9650   83.8710   30.9760 C   0  0  0  0  0  0  0  0  0  0  0  0
   65.5600   82.9240   32.0130 N   0  0  0  0  0  0  0  0  0  0  0  0
   64.7680   81.8080   31.4630 C   0  0  0  0  0  0  0  0  0  0  0  0
   63.3360   82.1720   31.0240 C   0  0  0  0  0  0  0  0  0  0  0  0
   62.6060   82.9410   32.0400 N   0  0  0  0  0  0  0  0  0  0  0  0
   61.2190   82.9680   32.1590 C   0  0  0  0  0  0  0  0  0  0  0  0
   60.6080   83.6900   32.9440 O   0  0  0  0  0  0  0  0  0  0  0  0
   60.4160   82.0680   31.3100 C   0  0  0  0  0  0  0  0  0  0  0  0
   59.6960   81.0340   31.9150 C   0  0  0  0  0  0  0  0  0  0  0  0
   58.9180   80.1820   31.1270 C   0  0  0  0  0  0  0  0  0  0  0  0
   58.8470   80.3800   29.7400 C   0  0  0  0  0  0  0  0  0  0  0  0
   58.0370   79.4930   28.8610 C   0  0  0  0  0  0  0  0  0  0  0  0
   58.2350   79.4830   27.6520 O   0  0  0  0  0  0  0  0  0  0  0  0
   57.0620   78.7410   29.4870 N   0  0  0  0  0  0  0  0  0  0  0  0
   56.1380   77.9350   28.7150 C   0  0  0  0  0  0  0  0  0  0  0  0
   54.9160   78.7330   28.2630 C   0  0  0  0  0  0  0  0  0  0  0  0
   53.8700   77.6580   28.0190 C   0  0  0  0  0  0  0  0  0  0  0  0
   54.0620   76.7180   29.1980 C   0  0  0  0  0  0  0  0  0  0  0  0
   55.5600   76.7480   29.5020 C   0  0  0  0  0  0  0  0  0  0  0  0
   59.5710   81.4240   29.1450 C   0  0  0  0  0  0  0  0  0  0  0  0
   60.3470   82.2780   29.9300 C   0  0  0  0  0  0  0  0  0  0  0  0
   63.3620   84.0080   32.6990 C   0  0  0  0  0  0  0  0  0  0  0  0
   64.7900   83.5820   33.0880 C   0  0  0  0  0  0  0  0  0  0  0  0
   66.3559   84.7851   31.4467 H   0  0  0  0  0  0  0  0  0  0  0  0
   66.7477   83.4171   30.3504 H   0  0  0  0  0  0  0  0  0  0  0  0
   65.0961   84.1235   30.3504 H   0  0  0  0  0  0  0  0  0  0  0  0
   65.3019   81.4114   30.5868 H   0  0  0  0  0  0  0  0  0  0  0  0
   64.6604   81.0790   32.2797 H   0  0  0  0  0  0  0  0  0  0  0  0
   63.3926   82.7714   30.1034 H   0  0  0  0  0  0  0  0  0  0  0  0
   62.7893   81.2306   30.8660 H   0  0  0  0  0  0  0  0  0  0  0  0
   59.7416   80.8919   33.0048 H   0  0  0  0  0  0  0  0  0  0  0  0
   58.3613   79.3562   31.5940 H   0  0  0  0  0  0  0  0  0  0  0  0
   56.7830   79.0110   30.4200 H   0  0  0  0  0  0  0  0  0  0  0  0
   56.7471   77.5883   27.8672 H   0  0  0  0  0  0  0  0  0  0  0  0
   54.5886   79.4311   29.0475 H   0  0  0  0  0  0  0  0  0  0  0  0
   55.1105   79.3547   27.3766 H   0  0  0  0  0  0  0  0  0  0  0  0
   52.8567   78.0861   28.0160 H   0  0  0  0  0  0  0  0  0  0  0  0
   53.9811   77.1590   27.0450 H   0  0  0  0  0  0  0  0  0  0  0  0
   53.4859   77.0683   30.0672 H   0  0  0  0  0  0  0  0  0  0  0  0
   53.7111   75.7005   28.9710 H   0  0  0  0  0  0  0  0  0  0  0  0
   55.7268   76.8888   30.5801 H   0  0  0  0  0  0  0  0  0  0  0  0
   56.0448   75.8037   29.2133 H   0  0  0  0  0  0  0  0  0  0  0  0
   59.5269   81.5700   28.0556 H   0  0  0  0  0  0  0  0  0  0  0  0
   60.8993   83.1089   29.4668 H   0  0  0  0  0  0  0  0  0  0  0  0
   63.4266   84.8663   32.0141 H   0  0  0  0  0  0  0  0  0  0  0  0
   62.8302   84.2627   33.6276 H   0  0  0  0  0  0  0  0  0  0  0  0
   65.3409   84.4812   33.4010 H   0  0  0  0  0  0  0  0  0  0  0  0
   64.6807   82.8357   33.8887 H   0  0  0  0  0  0  0  0  0  0  0  0
  1  2  1  0
  2  3  1  0
  3  4  1  0
  4  5  1  0
  5  6  1  0
  6  7  2  0
  6  8  1  0
  8  9  1  0
  9 10  2  0
 10 11  1  0
 11 12  1  0
 12 13  2  0
 12 14  1  0
 14 15  1  0
 15 16  1  0
 16 17  1  0
 17 18  1  0
 18 19  1  0
 11 20  2  0
 20 21  1  0
  5 22  1  0
 22 23  1  0
 23  2  1  0
 21  8  2  0
 19 15  1  0
  1 24  1  0
  1 25  1  0
  1 26  1  0
  3 27  1  0
  3 28  1  0
  4 29  1  0
  4 30  1  0
  9 31  1  0
 10 32  1  0
 14 33  1  0
 15 34  1  0
 16 35  1  0
 16 36  1  0
 17 37  1  0
 17 38  1  0
 18 39  1  0
 18 40  1  0
 19 41  1  0
 19 42  1  0
 20 43  1  0
 21 44  1  0
 22 45  1  0
 22 46  1  0
 23 47  1  0
 23 48  1  0
M  END
>  <meeko>  (1) 
{"is_sidechain": false}

>  <smiles>  (1) 
CN1CCN(C(=O)c2ccc(C(=O)NC3CCCC3)cc2)CC1

>  <vina_score>  (1) 
-7.803

>  <job_id>  (1) 
1e724966e97a7a94

$$$$
