
     RDKit          3D

 55 57  0  0  0  0  0  0  0  0999 V2000
   65.1500   82.1070   32.1480 C   0  0  0  0  0  0  0  0  0  0  0  0
   65.0870   83.1120   31.0240 C   0  0  0  0  0  0  0  0  0  0  0  0
   66.3700   83.7960   30.6300 C   0  0  0  0  0  0  0  0  0  0  0  0
   64.0020   83.4180   30.3780 N   0  0  0  0  0  0  0  0  0  0  0  0
   62.8780   82.7280   30.8190 N   0  0  0  0  0  0  0  0  0  0  0  0
   61.8990   83.5420   31.0350 C   0  0  0  0  0  0  0  0  0  0  0  0
   60.5860   83.0270   31.5330 C   0  0  0  0  0  0  0  0  0  0  0  0
   60.1490   83.5290   32.5630 O   0  0  0  0  0  0  0  0  0  0  0  0
   59.8760   81.9310   30.8270 C   0  0  0  0  0  0  0  0  0  0  0  0
   59.2850   80.9200   31.5900 C   0  0  0  0  0  0  0  0  0  0  0  0
   58.6150   79.8570   30.9690 C   0  0  0  0  0  0  0  0  0  0  0  0
   58.5150   79.7770   29.5770 C   0  0  0  0  0  0  0  0  0  0  0  0
   57.8740   78.7380   28.8960 N   0  0  0  0  0  0  0  0  0  0  0  0
   56.5450   78.3450   28.7620 C   0  0  0  0  0  0  0  0  0  0  0  0
   55.9360   77.5650   29.6680 N   0  0  0  0  0  0  0  0  0  0  0  0
   54.6410   77.2540   29.4520 C   0  0  0  0  0  0  0  0  0  0  0  0
   53.9340   77.6870   28.3620 C   0  0  0  0  0  0  0  0  0  0  0  0
   52.6500   77.3510   28.1940 F   0  0  0  0  0  0  0  0  0  0  0  0
   54.6350   78.4650   27.4690 C   0  0  0  0  0  0  0  0  0  0  0  0
   54.0190   79.0290   26.2700 C   0  0  0  0  0  0  0  0  0  0  0  0
   53.4580   78.3660   25.1960 C   0  0  0  0  0  0  0  0  0  0  0  0
   52.9340   79.2350   24.2870 N   0  0  0  0  0  0  0  0  0  0  0  0
   53.1610   80.4410   24.7640 C   0  0  0  0  0  0  0  0  0  0  0  0
   52.7150   81.6830   24.0820 C   0  0  0  0  0  0  0  0  0  0  0  0
   53.8700   80.3770   25.9530 N   0  0  0  0  0  0  0  0  0  0  0  0
   54.4080   81.4940   26.7310 C   0  0  0  0  0  0  0  0  0  0  0  0
   53.3100   82.4480   27.1980 C   0  0  0  0  0  0  0  0  0  0  0  0
   55.5570   82.2430   26.0500 C   0  0  0  0  0  0  0  0  0  0  0  0
   55.9320   78.8060   27.6580 N   0  0  0  0  0  0  0  0  0  0  0  0
   59.1260   80.7930   28.8230 C   0  0  0  0  0  0  0  0  0  0  0  0
   59.7990   81.8600   29.4350 C   0  0  0  0  0  0  0  0  0  0  0  0
   65.1170   82.6337   33.1131 H   0  0  0  0  0  0  0  0  0  0  0  0
   64.2931   81.4212   32.0751 H   0  0  0  0  0  0  0  0  0  0  0  0
   66.0859   81.5335   32.0751 H   0  0  0  0  0  0  0  0  0  0  0  0
   66.9217   84.0901   31.5351 H   0  0  0  0  0  0  0  0  0  0  0  0
   66.9851   83.1061   30.0336 H   0  0  0  0  0  0  0  0  0  0  0  0
   66.1401   84.6912   30.0336 H   0  0  0  0  0  0  0  0  0  0  0  0
   62.0313   84.6186   30.8520 H   0  0  0  0  0  0  0  0  0  0  0  0
   59.3462   80.9589   32.6876 H   0  0  0  0  0  0  0  0  0  0  0  0
   58.1592   79.0708   31.5888 H   0  0  0  0  0  0  0  0  0  0  0  0
   58.4450   78.1690   28.2900 H   0  0  0  0  0  0  0  0  0  0  0  0
   54.1267   76.6201   30.1893 H   0  0  0  0  0  0  0  0  0  0  0  0
   53.4369   77.2715   25.0880 H   0  0  0  0  0  0  0  0  0  0  0  0
   52.4440   82.4377   24.8350 H   0  0  0  0  0  0  0  0  0  0  0  0
   53.5307   82.0691   23.4530 H   0  0  0  0  0  0  0  0  0  0  0  0
   51.8401   81.4620   23.4530 H   0  0  0  0  0  0  0  0  0  0  0  0
   54.8544   81.0283   27.6220 H   0  0  0  0  0  0  0  0  0  0  0  0
   53.2858   82.4690   28.2975 H   0  0  0  0  0  0  0  0  0  0  0  0
   53.5159   83.4589   26.8164 H   0  0  0  0  0  0  0  0  0  0  0  0
   52.3377   82.1030   26.8164 H   0  0  0  0  0  0  0  0  0  0  0  0
   56.2185   82.6742   26.8158 H   0  0  0  0  0  0  0  0  0  0  0  0
   56.1294   81.5440   25.4225 H   0  0  0  0  0  0  0  0  0  0  0  0
   55.1485   83.0488   25.4225 H   0  0  0  0  0  0  0  0  0  0  0  0
   59.0751   80.7503   27.7250 H   0  0  0  0  0  0  0  0  0  0  0  0
   60.2665   82.6415   28.8180 H   0  0  0  0  0  0  0  0  0  0  0  0
  1  2  1  0
  2  3  1  0
  2  4  2  3
  4  5  1  0
  5  6  2  3
  6  7  1  0
  7  8  2  0
  7  9  1  0
  9 10  1  0
 10 11  2  0
 11 12  1  0
 12 13  1  0
 13 14  1  0
 14 15  2  0
 15 16  1  0
 16 17  2  0
 17 18  1  0
 17 19  1  0
 19 20  1  0
 20 21  2  0
 21 22  1  0
 22 23  2  0
 23 24  1  0
 23 25  1  0
 25 26  1  0
 26 27  1  0
 26 28  1  0
 19 29  2  0
 12 30  2  0
 30 31  1  0
 31  9  2  0
 29 14  1  0
 25 20  1  0
  1 32  1  0
  1 33  1  0
  1 34  1  0
  3 35  1  0
  3 36  1  0
  3 37  1  0
  6 38  1  0
 10 39  1  0
 11 40  1  0
 13 41  1  0
 16 42  1  0
 21 43  1  0
 24 44  1  0
 24 45  1  0
 24 46  1  0
 26 47  1  0
 27 48  1  0
 27 49  1  0
 27 50  1  0
 28 51  1  0
 28 52  1  0
 28 53  1  0
 30 54  1  0
 31 55  1  0
M  END
>  <meeko>  (1) 
{"is_sidechain": false}

>  <smiles>  (1) 
CC(C)=NN=CC(=O)c1ccc(Nc2ncc(F)c(-c3cnc(C)n3C(C)C)n2)cc1

>  <vina_score>  (1) 
-9.119

>  <job_id>  (1) 
1eab1504d1a6c63c

$$$$
