
     RDKit          3D

 62 64  0  0  0  0  0  0  0  0999 V2000
   63.8510   81.4990   33.2890 C   0  0  0  0  0  0  0  0  0  0  0  0
   62.3260   81.3110   33.2480 C   0  0  0  0  0  0  0  0  0  0  0  0
   61.7490   82.4580   32.3520 C   0  0  0  0  0  0  0  0  0  0  0  0
   60.2720   82.4030   32.2810 N   0  0  0  0  0  0  0  0  0  0  0  0
   59.7060   81.6160   31.2780 C   0  0  0  0  0  0  0  0  0  0  0  0
   58.7180   80.6570   31.5020 C   0  0  0  0  0  0  0  0  0  0  0  0
   58.1860   79.9050   30.4490 C   0  0  0  0  0  0  0  0  0  0  0  0
   58.6220   80.1250   29.1500 C   0  0  0  0  0  0  0  0  0  0  0  0
   58.0830   79.3240   28.1250 N   0  0  0  0  0  0  0  0  0  0  0  0
   56.7860   79.7770   27.6560 C   0  0  0  0  0  0  0  0  0  0  0  0
   55.7300   78.7440   27.9960 C   0  0  0  0  0  0  0  0  0  0  0  0
   56.0660   77.7640   28.9530 C   0  0  0  0  0  0  0  0  0  0  0  0
   55.1590   76.7710   29.3310 C   0  0  0  0  0  0  0  0  0  0  0  0
   53.8880   76.7420   28.7700 C   0  0  0  0  0  0  0  0  0  0  0  0
   53.5210   77.7080   27.8350 C   0  0  0  0  0  0  0  0  0  0  0  0
   54.4330   78.7040   27.4440 C   0  0  0  0  0  0  0  0  0  0  0  0
   53.8430   79.9270   26.2820 S   0  0  0  0  0  0  0  0  0  0  0  0
   53.6030   81.3810   27.2700 C   0  0  0  0  0  0  0  0  0  0  0  0
   52.5600   79.4810   25.7720 O   0  0  0  0  0  0  0  0  0  0  0  0
   54.9250   80.2140   25.3570 O   0  0  0  0  0  0  0  0  0  0  0  0
   59.5590   81.0490   28.8820 N   0  0  0  0  0  0  0  0  0  0  0  0
   60.0520   81.7650   29.9300 C   0  0  0  0  0  0  0  0  0  0  0  0
   59.6850   82.4500   33.6330 C   0  0  0  0  0  0  0  0  0  0  0  0
   60.2450   81.3130   34.5150 C   0  0  0  0  0  0  0  0  0  0  0  0
   61.7320   81.3100   34.6200 N   0  0  0  0  0  0  0  0  0  0  0  0
   62.1650   80.1620   35.4460 C   0  0  0  0  0  0  0  0  0  0  0  0
   62.6850   80.5420   36.8640 C   0  0  0  0  0  0  0  0  0  0  0  0
   61.5440   80.6820   37.8770 C   0  0  0  0  0  0  0  0  0  0  0  0
   63.7260   79.5520   37.3890 C   0  0  0  0  0  0  0  0  0  0  0  0
   63.3450   81.8160   36.7700 O   0  0  0  0  0  0  0  0  0  0  0  0
   64.1873   81.5405   34.3355 H   0  0  0  0  0  0  0  0  0  0  0  0
   64.3384   80.6541   32.7804 H   0  0  0  0  0  0  0  0  0  0  0  0
   64.1186   82.4369   32.7804 H   0  0  0  0  0  0  0  0  0  0  0  0
   62.0664   80.3310   32.8211 H   0  0  0  0  0  0  0  0  0  0  0  0
   62.0502   83.4275   32.7754 H   0  0  0  0  0  0  0  0  0  0  0  0
   62.1473   82.3330   31.3343 H   0  0  0  0  0  0  0  0  0  0  0  0
   58.3505   80.4890   32.5251 H   0  0  0  0  0  0  0  0  0  0  0  0
   57.4223   79.1395   30.6507 H   0  0  0  0  0  0  0  0  0  0  0  0
   57.9990   78.3740   28.5050 H   0  0  0  0  0  0  0  0  0  0  0  0
   56.5342   80.7310   28.1423 H   0  0  0  0  0  0  0  0  0  0  0  0
   56.8214   79.9162   26.5654 H   0  0  0  0  0  0  0  0  0  0  0  0
   57.0653   77.7820   29.4124 H   0  0  0  0  0  0  0  0  0  0  0  0
   55.4508   76.0125   30.0723 H   0  0  0  0  0  0  0  0  0  0  0  0
   53.1735   75.9587   29.0631 H   0  0  0  0  0  0  0  0  0  0  0  0
   52.5108   77.6911   27.3999 H   0  0  0  0  0  0  0  0  0  0  0  0
   53.6475   81.1117   28.3356 H   0  0  0  0  0  0  0  0  0  0  0  0
   54.3925   82.1127   27.0435 H   0  0  0  0  0  0  0  0  0  0  0  0
   52.6202   81.8201   27.0435 H   0  0  0  0  0  0  0  0  0  0  0  0
   60.7974   82.5386   29.6934 H   0  0  0  0  0  0  0  0  0  0  0  0
   59.9256   83.4179   34.0970 H   0  0  0  0  0  0  0  0  0  0  0  0
   58.5953   82.3257   33.5483 H   0  0  0  0  0  0  0  0  0  0  0  0
   59.8261   81.4203   35.5264 H   0  0  0  0  0  0  0  0  0  0  0  0
   59.9555   80.3651   34.0378 H   0  0  0  0  0  0  0  0  0  0  0  0
   61.3079   79.4830   35.5656 H   0  0  0  0  0  0  0  0  0  0  0  0
   63.0117   79.6998   34.9174 H   0  0  0  0  0  0  0  0  0  0  0  0
   61.9515   80.6320   38.8975 H   0  0  0  0  0  0  0  0  0  0  0  0
   61.0401   81.6487   37.7304 H   0  0  0  0  0  0  0  0  0  0  0  0
   60.8213   79.8658   37.7304 H   0  0  0  0  0  0  0  0  0  0  0  0
   63.7176   79.5600   38.4889 H   0  0  0  0  0  0  0  0  0  0  0  0
   63.4856   78.5412   37.0278 H   0  0  0  0  0  0  0  0  0  0  0  0
   64.7235   79.8428   37.0278 H   0  0  0  0  0  0  0  0  0  0  0  0
   63.6640   81.9200   35.8580 H   0  0  0  0  0  0  0  0  0  0  0  0
  1  2  1  0
  2  3  1  0
  3  4  1  0
  4  5  1  0
  5  6  2  0
  6  7  1  0
  7  8  2  0
  8  9  1  0
  9 10  1  0
 10 11  1  0
 11 12  2  0
 12 13  1  0
 13 14  2  0
 14 15  1  0
 15 16  2  0
 16 17  1  0
 17 18  1  0
 17 19  2  0
 17 20  2  0
  8 21  1  0
 21 22  2  0
  4 23  1  0
 23 24  1  0
 24 25  1  0
 25 26  1  0
 26 27  1  0
 27 28  1  0
 27 29  1  0
 27 30  1  0
 25  2  1  0
 22  5  1  0
 16 11  1  0
  1 31  1  0
  1 32  1  0
  1 33  1  0
  2 34  1  0
  3 35  1  0
  3 36  1  0
  6 37  1  0
  7 38  1  0
  9 39  1  0
 10 40  1  0
 10 41  1  0
 12 42  1  0
 13 43  1  0
 14 44  1  0
 15 45  1  0
 18 46  1  0
 18 47  1  0
 18 48  1  0
 22 49  1  0
 23 50  1  0
 23 51  1  0
 24 52  1  0
 24 53  1  0
 26 54  1  0
 26 55  1  0
 28 56  1  0
 28 57  1  0
 28 58  1  0
 29 59  1  0
 29 60  1  0
 29 61  1  0
 30 62  1  0
M  END
>  <meeko>  (1) 
{"is_sidechain": false}

>  <smiles>  (1) 
CC1CN(c2ccc(NCc3ccccc3S(C)(=O)=O)nc2)CCN1CC(C)(C)O

>  <vina_score>  (1) 
-8.306

>  <job_id>  (1) 
1ef60eac4ae389ae

$$$$
