
     RDKit          3D

 31 32  0  0  0  0  0  0  0  0999 V2000
   49.5610   81.3570   22.0240 N   0  0  0  0  0  0  0  0  0  0  0  0
   51.0590   81.8910   21.4890 S   0  0  0  0  0  0  0  0  0  0  0  0
   50.9220   83.3120   21.2690 O   0  0  0  0  0  0  0  0  0  0  0  0
   51.4530   80.9810   20.4390 O   0  0  0  0  0  0  0  0  0  0  0  0
   52.0760   81.6190   22.9100 C   0  0  0  0  0  0  0  0  0  0  0  0
   52.4440   82.7000   23.7140 C   0  0  0  0  0  0  0  0  0  0  0  0
   53.2300   82.4770   24.8440 C   0  0  0  0  0  0  0  0  0  0  0  0
   53.6320   81.1790   25.1720 C   0  0  0  0  0  0  0  0  0  0  0  0
   53.2420   80.0860   24.3830 C   0  0  0  0  0  0  0  0  0  0  0  0
   53.6850   78.6870   24.7330 C   0  0  0  0  0  0  0  0  0  0  0  0
   52.7790   78.1730   25.7060 O   0  0  0  0  0  0  0  0  0  0  0  0
   53.3160   77.6220   26.8360 C   0  0  0  0  0  0  0  0  0  0  0  0
   52.9580   76.3940   27.4030 C   0  0  0  0  0  0  0  0  0  0  0  0
   53.5940   75.9470   28.5680 C   0  0  0  0  0  0  0  0  0  0  0  0
   54.5810   76.7270   29.1580 C   0  0  0  0  0  0  0  0  0  0  0  0
   55.1850   76.2920   30.2730 F   0  0  0  0  0  0  0  0  0  0  0  0
   54.9380   77.9450   28.5970 C   0  0  0  0  0  0  0  0  0  0  0  0
   55.8910   78.6970   29.1650 F   0  0  0  0  0  0  0  0  0  0  0  0
   54.3120   78.3960   27.4400 C   0  0  0  0  0  0  0  0  0  0  0  0
   52.4630   80.3170   23.2400 C   0  0  0  0  0  0  0  0  0  0  0  0
   49.2750   80.5330   21.4940 H   0  0  0  0  0  0  0  0  0  0  0  0
   49.5820   81.2150   23.0340 H   0  0  0  0  0  0  0  0  0  0  0  0
   52.1167   83.7185   23.4581 H   0  0  0  0  0  0  0  0  0  0  0  0
   53.5339   83.3231   25.4778 H   0  0  0  0  0  0  0  0  0  0  0  0
   54.2613   81.0124   26.0587 H   0  0  0  0  0  0  0  0  0  0  0  0
   53.6677   78.0532   23.8341 H   0  0  0  0  0  0  0  0  0  0  0  0
   54.7105   78.6972   25.1308 H   0  0  0  0  0  0  0  0  0  0  0  0
   52.1762   75.7790   26.9333 H   0  0  0  0  0  0  0  0  0  0  0  0
   53.3131   74.9817   29.0144 H   0  0  0  0  0  0  0  0  0  0  0  0
   54.6003   79.3619   26.9997 H   0  0  0  0  0  0  0  0  0  0  0  0
   52.1566   79.4739   22.6034 H   0  0  0  0  0  0  0  0  0  0  0  0
  1  2  1  0
  2  3  2  0
  2  4  2  0
  2  5  1  0
  5  6  2  0
  6  7  1  0
  7  8  2  0
  8  9  1  0
  9 10  1  0
 10 11  1  0
 11 12  1  0
 12 13  1  0
 13 14  2  0
 14 15  1  0
 15 16  1  0
 15 17  2  0
 17 18  1  0
 17 19  1  0
  9 20  2  0
 20  5  1  0
 19 12  2  0
  1 21  1  0
  1 22  1  0
  6 23  1  0
  7 24  1  0
  8 25  1  0
 10 26  1  0
 10 27  1  0
 13 28  1  0
 14 29  1  0
 19 30  1  0
 20 31  1  0
M  END
>  <meeko>  (1) 
{"is_sidechain": false}

>  <smiles>  (1) 
NS(=O)(=O)c1cccc(COc2ccc(F)c(F)c2)c1

>  <vina_score>  (1) 
-8.171

>  <job_id>  (1) 
1f2777bbfe3af953

$$$$
