
     RDKit          3D

 55 58  0  0  0  0  0  0  0  0999 V2000
   52.6620   80.6590   25.7720 C   0  0  0  0  0  0  0  0  0  0  0  0
   52.7310   79.4520   26.5190 O   0  0  0  0  0  0  0  0  0  0  0  0
   53.9020   79.2030   27.1810 C   0  0  0  0  0  0  0  0  0  0  0  0
   54.9920   79.9570   26.7420 C   0  0  0  0  0  0  0  0  0  0  0  0
   56.2500   79.8040   27.3300 C   0  0  0  0  0  0  0  0  0  0  0  0
   56.4370   78.8840   28.3680 C   0  0  0  0  0  0  0  0  0  0  0  0
   57.7910   78.7230   29.0190 C   0  0  0  0  0  0  0  0  0  0  0  0
   58.4320   80.0320   29.4070 C   0  0  0  0  0  0  0  0  0  0  0  0
   59.3100   80.5820   28.5480 N   0  0  0  0  0  0  0  0  0  0  0  0
   59.8740   81.7320   28.9470 C   0  0  0  0  0  0  0  0  0  0  0  0
   59.5790   82.3490   30.1400 C   0  0  0  0  0  0  0  0  0  0  0  0
   58.6490   81.7340   30.9590 C   0  0  0  0  0  0  0  0  0  0  0  0
   58.3210   82.3110   32.1960 N   0  0  0  0  0  0  0  0  0  0  0  0
   58.2200   81.3560   33.3190 C   0  0  0  0  0  0  0  0  0  0  0  0
   59.6060   80.9800   33.8780 C   0  0  0  0  0  0  0  0  0  0  0  0
   60.4150   82.1610   34.2210 N   0  0  0  0  0  0  0  0  0  0  0  0
   61.5480   82.0660   35.0400 C   0  0  0  0  0  0  0  0  0  0  0  0
   62.5300   82.7820   34.8670 O   0  0  0  0  0  0  0  0  0  0  0  0
   61.4180   81.1420   36.0530 N   0  0  0  0  0  0  0  0  0  0  0  0
   62.4230   80.6920   36.9330 C   0  0  0  0  0  0  0  0  0  0  0  0
   63.0560   79.4810   36.6240 C   0  0  0  0  0  0  0  0  0  0  0  0
   64.0740   78.9820   37.4390 C   0  0  0  0  0  0  0  0  0  0  0  0
   64.4740   79.6920   38.5690 C   0  0  0  0  0  0  0  0  0  0  0  0
   63.8570   80.9030   38.8770 C   0  0  0  0  0  0  0  0  0  0  0  0
   62.8390   81.4030   38.0600 C   0  0  0  0  0  0  0  0  0  0  0  0
   60.4900   83.1640   33.1470 C   0  0  0  0  0  0  0  0  0  0  0  0
   59.1110   83.5120   32.5530 C   0  0  0  0  0  0  0  0  0  0  0  0
   58.0840   80.5700   30.5960 N   0  0  0  0  0  0  0  0  0  0  0  0
   55.3390   78.1360   28.8140 C   0  0  0  0  0  0  0  0  0  0  0  0
   54.0800   78.2930   28.2220 C   0  0  0  0  0  0  0  0  0  0  0  0
   52.6131   81.5147   26.4615 H   0  0  0  0  0  0  0  0  0  0  0  0
   53.5564   80.7496   25.1381 H   0  0  0  0  0  0  0  0  0  0  0  0
   51.7631   80.6470   25.1381 H   0  0  0  0  0  0  0  0  0  0  0  0
   54.8587   80.6799   25.9237 H   0  0  0  0  0  0  0  0  0  0  0  0
   57.0973   80.4093   26.9756 H   0  0  0  0  0  0  0  0  0  0  0  0
   57.6708   78.1120   29.9258 H   0  0  0  0  0  0  0  0  0  0  0  0
   58.4509   78.2466   28.2791 H   0  0  0  0  0  0  0  0  0  0  0  0
   60.6122   82.2070   28.2841 H   0  0  0  0  0  0  0  0  0  0  0  0
   60.0627   83.2930   30.4312 H   0  0  0  0  0  0  0  0  0  0  0  0
   57.6242   81.8134   34.1227 H   0  0  0  0  0  0  0  0  0  0  0  0
   57.7421   80.4385   32.9452 H   0  0  0  0  0  0  0  0  0  0  0  0
   59.4678   80.3719   34.7841 H   0  0  0  0  0  0  0  0  0  0  0  0
   60.1423   80.4235   33.0952 H   0  0  0  0  0  0  0  0  0  0  0  0
   60.4700   80.9650   36.3420 H   0  0  0  0  0  0  0  0  0  0  0  0
   62.7480   78.9178   35.7307 H   0  0  0  0  0  0  0  0  0  0  0  0
   64.5605   78.0277   37.1887 H   0  0  0  0  0  0  0  0  0  0  0  0
   65.2728   79.2987   39.2149 H   0  0  0  0  0  0  0  0  0  0  0  0
   64.1724   81.4677   39.7667 H   0  0  0  0  0  0  0  0  0  0  0  0
   62.3625   82.3632   38.3068 H   0  0  0  0  0  0  0  0  0  0  0  0
   60.9381   84.0820   33.5549 H   0  0  0  0  0  0  0  0  0  0  0  0
   61.0991   82.7355   32.3375 H   0  0  0  0  0  0  0  0  0  0  0  0
   58.5464   84.0967   33.2941 H   0  0  0  0  0  0  0  0  0  0  0  0
   59.2827   84.0827   31.6285 H   0  0  0  0  0  0  0  0  0  0  0  0
   55.4676   77.4182   29.6376 H   0  0  0  0  0  0  0  0  0  0  0  0
   53.2281   77.6961   28.5796 H   0  0  0  0  0  0  0  0  0  0  0  0
  1  2  1  0
  2  3  1  0
  3  4  1  0
  4  5  2  0
  5  6  1  0
  6  7  1  0
  7  8  1  0
  8  9  2  0
  9 10  1  0
 10 11  2  0
 11 12  1  0
 12 13  1  0
 13 14  1  0
 14 15  1  0
 15 16  1  0
 16 17  1  0
 17 18  2  0
 17 19  1  0
 19 20  1  0
 20 21  2  0
 21 22  1  0
 22 23  2  0
 23 24  1  0
 24 25  2  0
 16 26  1  0
 26 27  1  0
 12 28  2  0
  6 29  2  0
 29 30  1  0
 30  3  2  0
 28  8  1  0
 27 13  1  0
 25 20  1  0
  1 31  1  0
  1 32  1  0
  1 33  1  0
  4 34  1  0
  5 35  1  0
  7 36  1  0
  7 37  1  0
 10 38  1  0
 11 39  1  0
 14 40  1  0
 14 41  1  0
 15 42  1  0
 15 43  1  0
 19 44  1  0
 21 45  1  0
 22 46  1  0
 23 47  1  0
 24 48  1  0
 25 49  1  0
 26 50  1  0
 26 51  1  0
 27 52  1  0
 27 53  1  0
 29 54  1  0
 30 55  1  0
M  END
>  <meeko>  (1) 
{"is_sidechain": false}

>  <smiles>  (1) 
COc1ccc(Cc2nccc(N3CCN(C(=O)Nc4ccccc4)CC3)n2)cc1

>  <vina_score>  (1) 
-8.018

>  <job_id>  (1) 
1f4296b9b40e1245

$$$$
