
     RDKit          3D

 45 46  0  0  0  0  0  0  0  0999 V2000
   52.9800   81.2220   23.8570 C   0  0  0  0  0  0  0  0  0  0  0  0
   53.2770   80.0360   24.7010 C   0  0  0  0  0  0  0  0  0  0  0  0
   52.9160   78.8120   24.3750 N   0  0  0  0  0  0  0  0  0  0  0  0
   53.3380   78.0100   25.3920 C   0  0  0  0  0  0  0  0  0  0  0  0
   54.0010   78.7330   26.3610 C   0  0  0  0  0  0  0  0  0  0  0  0
   54.6050   78.2480   27.5920 C   0  0  0  0  0  0  0  0  0  0  0  0
   55.5210   79.0920   28.1180 N   0  0  0  0  0  0  0  0  0  0  0  0
   56.1090   78.7070   29.2630 C   0  0  0  0  0  0  0  0  0  0  0  0
   57.0360   79.6170   29.7460 N   0  0  0  0  0  0  0  0  0  0  0  0
   58.1870   80.0230   29.1150 C   0  0  0  0  0  0  0  0  0  0  0  0
   58.5600   79.6440   28.0080 O   0  0  0  0  0  0  0  0  0  0  0  0
   59.0170   81.0410   29.9330 C   0  0  0  0  0  0  0  0  0  0  0  0
   59.3100   80.4800   31.3330 C   0  0  0  0  0  0  0  0  0  0  0  0
   60.3320   81.3570   29.2030 C   0  0  0  0  0  0  0  0  0  0  0  0
   58.2180   82.3490   30.0880 C   0  0  0  0  0  0  0  0  0  0  0  0
   55.8410   77.5590   29.8950 N   0  0  0  0  0  0  0  0  0  0  0  0
   54.9120   76.7520   29.3420 C   0  0  0  0  0  0  0  0  0  0  0  0
   54.2570   77.0520   28.1790 C   0  0  0  0  0  0  0  0  0  0  0  0
   53.3440   76.2230   27.6590 F   0  0  0  0  0  0  0  0  0  0  0  0
   53.9300   80.0490   25.9230 N   0  0  0  0  0  0  0  0  0  0  0  0
   54.4150   81.2120   26.6670 C   0  0  0  0  0  0  0  0  0  0  0  0
   53.3100   82.1920   27.0670 C   0  0  0  0  0  0  0  0  0  0  0  0
   55.5760   81.9180   25.9670 C   0  0  0  0  0  0  0  0  0  0  0  0
   52.7636   82.0862   24.5022 H   0  0  0  0  0  0  0  0  0  0  0  0
   53.8495   81.4471   23.2220 H   0  0  0  0  0  0  0  0  0  0  0  0
   52.1070   81.0108   23.2220 H   0  0  0  0  0  0  0  0  0  0  0  0
   53.1711   76.9236   25.4348 H   0  0  0  0  0  0  0  0  0  0  0  0
   56.7840   79.9780   30.6510 H   0  0  0  0  0  0  0  0  0  0  0  0
   58.9424   81.1838   32.0943 H   0  0  0  0  0  0  0  0  0  0  0  0
   58.8026   79.5115   31.4535 H   0  0  0  0  0  0  0  0  0  0  0  0
   60.3948   80.3431   31.4535 H   0  0  0  0  0  0  0  0  0  0  0  0
   61.1247   81.5475   29.9415 H   0  0  0  0  0  0  0  0  0  0  0  0
   60.6161   80.5016   28.5725 H   0  0  0  0  0  0  0  0  0  0  0  0
   60.1964   82.2481   28.5725 H   0  0  0  0  0  0  0  0  0  0  0  0
   58.0822   82.5713   31.1567 H   0  0  0  0  0  0  0  0  0  0  0  0
   58.7671   83.1730   29.6090 H   0  0  0  0  0  0  0  0  0  0  0  0
   57.2342   82.2366   29.6090 H   0  0  0  0  0  0  0  0  0  0  0  0
   54.6695   75.8073   29.8507 H   0  0  0  0  0  0  0  0  0  0  0  0
   54.8078   80.8011   27.6088 H   0  0  0  0  0  0  0  0  0  0  0  0
   53.2480   82.2469   28.1639 H   0  0  0  0  0  0  0  0  0  0  0  0
   53.5397   83.1887   26.6623 H   0  0  0  0  0  0  0  0  0  0  0  0
   52.3479   81.8448   26.6623 H   0  0  0  0  0  0  0  0  0  0  0  0
   56.2603   82.3341   26.7210 H   0  0  0  0  0  0  0  0  0  0  0  0
   56.1183   81.1966   25.3381 H   0  0  0  0  0  0  0  0  0  0  0  0
   55.1850   82.7314   25.3381 H   0  0  0  0  0  0  0  0  0  0  0  0
  1  2  1  0
  2  3  2  0
  3  4  1  0
  4  5  2  0
  5  6  1  0
  6  7  2  0
  7  8  1  0
  8  9  1  0
  9 10  1  0
 10 11  2  0
 10 12  1  0
 12 13  1  0
 12 14  1  0
 12 15  1  0
  8 16  2  0
 16 17  1  0
 17 18  2  0
 18 19  1  0
  5 20  1  0
 20 21  1  0
 21 22  1  0
 21 23  1  0
 20  2  1  0
 18  6  1  0
  1 24  1  0
  1 25  1  0
  1 26  1  0
  4 27  1  0
  9 28  1  0
 13 29  1  0
 13 30  1  0
 13 31  1  0
 14 32  1  0
 14 33  1  0
 14 34  1  0
 15 35  1  0
 15 36  1  0
 15 37  1  0
 17 38  1  0
 21 39  1  0
 22 40  1  0
 22 41  1  0
 22 42  1  0
 23 43  1  0
 23 44  1  0
 23 45  1  0
M  END
>  <meeko>  (1) 
{"is_sidechain": false}

>  <smiles>  (1) 
Cc1ncc(-c2nc(NC(=O)C(C)(C)C)ncc2F)n1C(C)C

>  <vina_score>  (1) 
-7.045

>  <job_id>  (1) 
1f6d2c49b0dad621

$$$$
