
     RDKit          3D

 58 61  0  0  0  0  0  0  0  0999 V2000
   52.5600   82.0320   23.1660 C   0  0  0  0  0  0  0  0  0  0  0  0
   52.9180   80.7890   23.9000 C   0  0  0  0  0  0  0  0  0  0  0  0
   52.7130   79.5730   23.4410 N   0  0  0  0  0  0  0  0  0  0  0  0
   53.1460   78.7320   24.4200 C   0  0  0  0  0  0  0  0  0  0  0  0
   53.6430   79.4240   25.5090 C   0  0  0  0  0  0  0  0  0  0  0  0
   54.1900   78.8810   26.7410 C   0  0  0  0  0  0  0  0  0  0  0  0
   53.4070   78.1710   27.6200 C   0  0  0  0  0  0  0  0  0  0  0  0
   54.0470   77.7390   28.7500 C   0  0  0  0  0  0  0  0  0  0  0  0
   55.3430   77.9870   29.0070 N   0  0  0  0  0  0  0  0  0  0  0  0
   56.0290   78.7010   28.1040 C   0  0  0  0  0  0  0  0  0  0  0  0
   57.3710   79.0250   28.2780 N   0  0  0  0  0  0  0  0  0  0  0  0
   58.0790   79.7720   29.2240 C   0  0  0  0  0  0  0  0  0  0  0  0
   58.9410   80.7830   28.7730 C   0  0  0  0  0  0  0  0  0  0  0  0
   59.6860   81.5620   29.6680 C   0  0  0  0  0  0  0  0  0  0  0  0
   59.5990   81.3570   31.0500 C   0  0  0  0  0  0  0  0  0  0  0  0
   60.3770   82.1740   31.9940 C   0  0  0  0  0  0  0  0  0  0  0  0
   59.7860   82.6910   33.1620 C   0  0  0  0  0  0  0  0  0  0  0  0
   60.5210   83.4700   34.0610 C   0  0  0  0  0  0  0  0  0  0  0  0
   61.8650   83.7370   33.7960 C   0  0  0  0  0  0  0  0  0  0  0  0
   62.8220   84.7160   34.9310 S   0  0  0  0  0  0  0  0  0  0  0  0
   64.2060   84.6330   34.4930 O   0  0  0  0  0  0  0  0  0  0  0  0
   62.1620   85.9990   35.0700 O   0  0  0  0  0  0  0  0  0  0  0  0
   62.6710   83.9030   36.3580 O   0  0  0  0  0  0  0  0  0  0  0  0
   63.0640   82.4830   36.3310 N   0  0  0  0  0  0  0  0  0  0  0  0
   61.9350   81.5640   37.1190 S   0  0  0  0  0  0  0  0  0  0  0  0
   62.4770   83.2390   32.6440 C   0  0  0  0  0  0  0  0  0  0  0  0
   61.7320   82.4630   31.7510 C   0  0  0  0  0  0  0  0  0  0  0  0
   58.7430   80.3430   31.5010 C   0  0  0  0  0  0  0  0  0  0  0  0
   57.9990   79.5650   30.6020 C   0  0  0  0  0  0  0  0  0  0  0  0
   55.4870   79.1580   26.9640 N   0  0  0  0  0  0  0  0  0  0  0  0
   53.5140   80.7570   25.1530 N   0  0  0  0  0  0  0  0  0  0  0  0
   53.9470   81.9500   25.8820 C   0  0  0  0  0  0  0  0  0  0  0  0
   53.3100   82.0470   27.2700 C   0  0  0  0  0  0  0  0  0  0  0  0
   55.4610   82.1670   25.9210 C   0  0  0  0  0  0  0  0  0  0  0  0
   52.3301   82.8303   23.8870 H   0  0  0  0  0  0  0  0  0  0  0  0
   53.4056   82.3411   22.5340 H   0  0  0  0  0  0  0  0  0  0  0  0
   51.6795   81.8440   22.5340 H   0  0  0  0  0  0  0  0  0  0  0  0
   53.1054   77.6348   24.3528 H   0  0  0  0  0  0  0  0  0  0  0  0
   52.3435   77.9651   27.4290 H   0  0  0  0  0  0  0  0  0  0  0  0
   53.4711   77.1588   29.4860 H   0  0  0  0  0  0  0  0  0  0  0  0
   57.8940   78.6660   27.4930 H   0  0  0  0  0  0  0  0  0  0  0  0
   59.0340   80.9681   27.6927 H   0  0  0  0  0  0  0  0  0  0  0  0
   60.3501   82.3475   29.2783 H   0  0  0  0  0  0  0  0  0  0  0  0
   58.7272   82.4785   33.3714 H   0  0  0  0  0  0  0  0  0  0  0  0
   60.0443   83.8687   34.9687 H   0  0  0  0  0  0  0  0  0  0  0  0
   63.9500   82.4860   36.8590 H   0  0  0  0  0  0  0  0  0  0  0  0
   60.9900   82.5020   37.2970 H   0  0  0  0  0  0  0  0  0  0  0  0
   63.5362   83.4554   32.4408 H   0  0  0  0  0  0  0  0  0  0  0  0
   62.2137   82.0717   30.8428 H   0  0  0  0  0  0  0  0  0  0  0  0
   58.6530   80.1537   32.5808 H   0  0  0  0  0  0  0  0  0  0  0  0
   57.3390   78.7756   30.9908 H   0  0  0  0  0  0  0  0  0  0  0  0
   53.5648   82.7901   25.2836 H   0  0  0  0  0  0  0  0  0  0  0  0
   54.0873   81.9286   28.0393 H   0  0  0  0  0  0  0  0  0  0  0  0
   52.8276   83.0290   27.3842 H   0  0  0  0  0  0  0  0  0  0  0  0
   52.5572   81.2531   27.3842 H   0  0  0  0  0  0  0  0  0  0  0  0
   55.7977   82.2153   26.9671 H   0  0  0  0  0  0  0  0  0  0  0  0
   55.9644   81.3318   25.4120 H   0  0  0  0  0  0  0  0  0  0  0  0
   55.7095   83.1099   25.4120 H   0  0  0  0  0  0  0  0  0  0  0  0
  1  2  1  0
  2  3  2  0
  3  4  1  0
  4  5  2  0
  5  6  1  0
  6  7  1  0
  7  8  2  0
  8  9  1  0
  9 10  2  0
 10 11  1  0
 11 12  1  0
 12 13  1  0
 13 14  2  0
 14 15  1  0
 15 16  1  0
 16 17  1  0
 17 18  2  0
 18 19  1  0
 19 20  1  0
 20 21  2  0
 20 22  2  0
 20 23  1  0
 23 24  1  0
 24 25  1  0
 19 26  2  0
 26 27  1  0
 15 28  2  0
 28 29  1  0
 10 30  1  0
  5 31  1  0
 31 32  1  0
 32 33  1  0
 32 34  1  0
 31  2  1  0
 30  6  2  0
 29 12  2  0
 27 16  2  0
  1 35  1  0
  1 36  1  0
  1 37  1  0
  4 38  1  0
  7 39  1  0
  8 40  1  0
 11 41  1  0
 13 42  1  0
 14 43  1  0
 17 44  1  0
 18 45  1  0
 24 46  1  0
 25 47  1  0
 26 48  1  0
 27 49  1  0
 28 50  1  0
 29 51  1  0
 32 52  1  0
 33 53  1  0
 33 54  1  0
 33 55  1  0
 34 56  1  0
 34 57  1  0
 34 58  1  0
M  END
>  <meeko>  (1) 
{"is_sidechain": false}

>  <smiles>  (1) 
Cc1ncc(-c2ccnc(Nc3ccc(-c4ccc(S(=O)(=O)ONS)cc4)cc3)n2)n1C(C)C

>  <vina_score>  (1) 
-8.022

>  <job_id>  (1) 
202f99744d1672f7

$$$$
