
     RDKit          3D

 67 71  0  0  0  0  0  0  0  0999 V2000
   52.9860   81.5900   23.8960 C   0  0  0  0  0  0  0  0  0  0  0  0
   53.2490   80.3790   24.7150 C   0  0  0  0  0  0  0  0  0  0  0  0
   52.8660   79.1700   24.3580 N   0  0  0  0  0  0  0  0  0  0  0  0
   53.3160   78.3310   25.3320 C   0  0  0  0  0  0  0  0  0  0  0  0
   53.9850   79.0170   26.3260 C   0  0  0  0  0  0  0  0  0  0  0  0
   54.6350   78.4910   27.5200 C   0  0  0  0  0  0  0  0  0  0  0  0
   53.9730   77.6640   28.3950 C   0  0  0  0  0  0  0  0  0  0  0  0
   54.7150   77.2320   29.4630 C   0  0  0  0  0  0  0  0  0  0  0  0
   56.0010   77.5730   29.6570 N   0  0  0  0  0  0  0  0  0  0  0  0
   56.5760   78.3710   28.7460 C   0  0  0  0  0  0  0  0  0  0  0  0
   57.9050   78.7720   28.8440 N   0  0  0  0  0  0  0  0  0  0  0  0
   58.5600   79.8240   29.4930 C   0  0  0  0  0  0  0  0  0  0  0  0
   58.5490   79.8570   30.8950 C   0  0  0  0  0  0  0  0  0  0  0  0
   59.1940   80.8750   31.6090 C   0  0  0  0  0  0  0  0  0  0  0  0
   59.8790   81.9000   30.9430 C   0  0  0  0  0  0  0  0  0  0  0  0
   60.5570   82.9740   31.6870 C   0  0  0  0  0  0  0  0  0  0  0  0
   61.2890   83.9680   31.0210 C   0  0  0  0  0  0  0  0  0  0  0  0
   61.9310   84.9910   31.7290 C   0  0  0  0  0  0  0  0  0  0  0  0
   61.8670   85.0540   33.1290 C   0  0  0  0  0  0  0  0  0  0  0  0
   62.5440   86.1290   33.8730 C   0  0  0  0  0  0  0  0  0  0  0  0
   62.3930   86.2490   35.2670 C   0  0  0  0  0  0  0  0  0  0  0  0
   63.0360   87.2670   35.9780 C   0  0  0  0  0  0  0  0  0  0  0  0
   63.8330   88.1840   35.2920 C   0  0  0  0  0  0  0  0  0  0  0  0
   64.6630   89.4730   36.1910 S   0  0  0  0  0  0  0  0  0  0  0  0
   64.5690   88.9170   37.8730 C   0  0  0  0  0  0  0  0  0  0  0  0
   66.0570   89.4610   35.7900 O   0  0  0  0  0  0  0  0  0  0  0  0
   63.8640   90.6770   36.0680 O   0  0  0  0  0  0  0  0  0  0  0  0
   64.0150   88.0780   33.9130 C   0  0  0  0  0  0  0  0  0  0  0  0
   63.3680   87.0580   33.2110 C   0  0  0  0  0  0  0  0  0  0  0  0
   61.1360   84.0600   33.7950 C   0  0  0  0  0  0  0  0  0  0  0  0
   60.4910   83.0380   33.0870 C   0  0  0  0  0  0  0  0  0  0  0  0
   59.8960   81.8640   29.5430 C   0  0  0  0  0  0  0  0  0  0  0  0
   59.2500   80.8410   28.8330 C   0  0  0  0  0  0  0  0  0  0  0  0
   55.9240   78.8500   27.6750 N   0  0  0  0  0  0  0  0  0  0  0  0
   53.9020   80.3500   25.9360 N   0  0  0  0  0  0  0  0  0  0  0  0
   54.3960   81.4890   26.7130 C   0  0  0  0  0  0  0  0  0  0  0  0
   55.5640   82.1900   26.0190 C   0  0  0  0  0  0  0  0  0  0  0  0
   53.3100   82.4820   27.1380 C   0  0  0  0  0  0  0  0  0  0  0  0
   52.7997   82.4477   24.5590 H   0  0  0  0  0  0  0  0  0  0  0  0
   53.8594   81.8001   23.2612 H   0  0  0  0  0  0  0  0  0  0  0  0
   52.1041   81.4189   23.2612 H   0  0  0  0  0  0  0  0  0  0  0  0
   53.1651   77.2414   25.3273 H   0  0  0  0  0  0  0  0  0  0  0  0
   52.9232   77.3699   28.2488 H   0  0  0  0  0  0  0  0  0  0  0  0
   54.2336   76.5721   30.1997 H   0  0  0  0  0  0  0  0  0  0  0  0
   58.4860   78.0810   28.3940 H   0  0  0  0  0  0  0  0  0  0  0  0
   58.0216   79.0650   31.4468 H   0  0  0  0  0  0  0  0  0  0  0  0
   59.1623   80.8697   32.7085 H   0  0  0  0  0  0  0  0  0  0  0  0
   61.3598   83.9433   29.9236 H   0  0  0  0  0  0  0  0  0  0  0  0
   62.4950   85.7582   31.1783 H   0  0  0  0  0  0  0  0  0  0  0  0
   61.7587   85.5301   35.8062 H   0  0  0  0  0  0  0  0  0  0  0  0
   62.9145   87.3442   37.0685 H   0  0  0  0  0  0  0  0  0  0  0  0
   64.7135   89.7716   38.5503 H   0  0  0  0  0  0  0  0  0  0  0  0
   63.5820   88.4670   38.0558 H   0  0  0  0  0  0  0  0  0  0  0  0
   65.3532   88.1676   38.0558 H   0  0  0  0  0  0  0  0  0  0  0  0
   64.6626   88.7917   33.3827 H   0  0  0  0  0  0  0  0  0  0  0  0
   63.5050   86.9797   32.1224 H   0  0  0  0  0  0  0  0  0  0  0  0
   61.0679   84.0832   34.8926 H   0  0  0  0  0  0  0  0  0  0  0  0
   59.9235   82.2732   33.6375 H   0  0  0  0  0  0  0  0  0  0  0  0
   60.4261   82.6531   28.9895 H   0  0  0  0  0  0  0  0  0  0  0  0
   59.2883   80.8408   27.7337 H   0  0  0  0  0  0  0  0  0  0  0  0
   54.7704   81.0524   27.6507 H   0  0  0  0  0  0  0  0  0  0  0  0
   56.2478   82.6004   26.7766 H   0  0  0  0  0  0  0  0  0  0  0  0
   56.1045   81.4669   25.3905 H   0  0  0  0  0  0  0  0  0  0  0  0
   55.1801   83.0071   25.3905 H   0  0  0  0  0  0  0  0  0  0  0  0
   53.2624   82.5255   28.2361 H   0  0  0  0  0  0  0  0  0  0  0  0
   53.5499   83.4796   26.7416 H   0  0  0  0  0  0  0  0  0  0  0  0
   52.3378   82.1540   26.7416 H   0  0  0  0  0  0  0  0  0  0  0  0
  1  2  1  0
  2  3  2  0
  3  4  1  0
  4  5  2  0
  5  6  1  0
  6  7  1  0
  7  8  2  0
  8  9  1  0
  9 10  2  0
 10 11  1  0
 11 12  1  0
 12 13  1  0
 13 14  2  0
 14 15  1  0
 15 16  1  0
 16 17  1  0
 17 18  2  0
 18 19  1  0
 19 20  1  0
 20 21  1  0
 21 22  2  0
 22 23  1  0
 23 24  1  0
 24 25  1  0
 24 26  2  0
 24 27  2  0
 23 28  2  0
 28 29  1  0
 19 30  2  0
 30 31  1  0
 15 32  2  0
 32 33  1  0
 10 34  1  0
  5 35  1  0
 35 36  1  0
 36 37  1  0
 36 38  1  0
 35  2  1  0
 34  6  2  0
 33 12  2  0
 31 16  2  0
 29 20  2  0
  1 39  1  0
  1 40  1  0
  1 41  1  0
  4 42  1  0
  7 43  1  0
  8 44  1  0
 11 45  1  0
 13 46  1  0
 14 47  1  0
 17 48  1  0
 18 49  1  0
 21 50  1  0
 22 51  1  0
 25 52  1  0
 25 53  1  0
 25 54  1  0
 28 55  1  0
 29 56  1  0
 30 57  1  0
 31 58  1  0
 32 59  1  0
 33 60  1  0
 36 61  1  0
 37 62  1  0
 37 63  1  0
 37 64  1  0
 38 65  1  0
 38 66  1  0
 38 67  1  0
M  END
>  <meeko>  (1) 
{"is_sidechain": false}

>  <smiles>  (1) 
Cc1ncc(-c2ccnc(Nc3ccc(-c4ccc(-c5ccc(S(C)(=O)=O)cc5)cc4)cc3)n2)n1C(C)C

>  <vina_score>  (1) 
-8.354

>  <job_id>  (1) 
203d678fca821c23

$$$$
