
     RDKit          3D

 66 70  0  0  0  0  0  0  0  0999 V2000
   65.3880   85.1730   37.1220 C   0  0  0  0  0  0  0  0  0  0  0  0
   64.9350   84.5770   35.8980 N   0  0  0  0  0  0  0  0  0  0  0  0
   65.2430   85.1070   34.6610 C   0  0  0  0  0  0  0  0  0  0  0  0
   66.0340   86.0300   34.5080 O   0  0  0  0  0  0  0  0  0  0  0  0
   64.4850   84.4710   33.5630 C   0  0  0  0  0  0  0  0  0  0  0  0
   65.0770   83.4980   32.8340 N   0  0  0  0  0  0  0  0  0  0  0  0
   64.1060   83.0350   32.0230 N   0  0  0  0  0  0  0  0  0  0  0  0
   64.4090   81.9310   31.1440 C   0  0  0  0  0  0  0  0  0  0  0  0
   62.9290   83.7110   32.1510 C   0  0  0  0  0  0  0  0  0  0  0  0
   63.1440   84.6870   33.1180 C   0  0  0  0  0  0  0  0  0  0  0  0
   62.0360   85.6330   33.5570 C   0  0  0  0  0  0  0  0  0  0  0  0
   62.5200   87.0870   33.7190 C   0  0  0  0  0  0  0  0  0  0  0  0
   61.4240   85.1420   34.8840 C   0  0  0  0  0  0  0  0  0  0  0  0
   60.9000   85.6740   32.4620 C   0  0  0  0  0  0  0  0  0  0  0  0
   60.6460   84.3870   31.7260 C   0  0  0  0  0  0  0  0  0  0  0  0
   59.4430   84.0720   31.1490 C   0  0  0  0  0  0  0  0  0  0  0  0
   59.2400   82.9490   30.4380 N   0  0  0  0  0  0  0  0  0  0  0  0
   60.2880   82.1260   30.2550 C   0  0  0  0  0  0  0  0  0  0  0  0
   59.9920   80.9710   29.5370 N   0  0  0  0  0  0  0  0  0  0  0  0
   58.8060   80.2940   29.2480 C   0  0  0  0  0  0  0  0  0  0  0  0
   58.1850   80.3170   28.0030 C   0  0  0  0  0  0  0  0  0  0  0  0
   57.0170   79.5770   27.7550 C   0  0  0  0  0  0  0  0  0  0  0  0
   56.4230   78.7700   28.7330 C   0  0  0  0  0  0  0  0  0  0  0  0
   55.2740   78.0410   28.4810 N   0  0  0  0  0  0  0  0  0  0  0  0
   54.3950   78.3570   27.3420 C   0  0  0  0  0  0  0  0  0  0  0  0
   52.9290   77.9520   27.6340 C   0  0  0  0  0  0  0  0  0  0  0  0
   52.7130   76.5420   28.0200 N   0  0  0  0  0  0  0  0  0  0  0  0
   52.2650   75.7320   26.8920 C   0  0  0  0  0  0  0  0  0  0  0  0
   53.9310   75.9600   28.6270 C   0  0  0  0  0  0  0  0  0  0  0  0
   54.8100   76.9780   29.3880 C   0  0  0  0  0  0  0  0  0  0  0  0
   57.0670   78.7410   29.9760 C   0  0  0  0  0  0  0  0  0  0  0  0
   58.2320   79.4820   30.2290 C   0  0  0  0  0  0  0  0  0  0  0  0
   61.5110   82.3560   30.7630 N   0  0  0  0  0  0  0  0  0  0  0  0
   61.6540   83.4730   31.4950 C   0  0  0  0  0  0  0  0  0  0  0  0
   64.9684   84.6209   37.9759 H   0  0  0  0  0  0  0  0  0  0  0  0
   66.4865   85.1340   37.1642 H   0  0  0  0  0  0  0  0  0  0  0  0
   65.0564   86.2210   37.1642 H   0  0  0  0  0  0  0  0  0  0  0  0
   64.1390   83.9430   35.8900 H   0  0  0  0  0  0  0  0  0  0  0  0
   64.6531   81.0415   31.7433 H   0  0  0  0  0  0  0  0  0  0  0  0
   63.5363   81.7174   30.5094 H   0  0  0  0  0  0  0  0  0  0  0  0
   65.2685   82.1928   30.5094 H   0  0  0  0  0  0  0  0  0  0  0  0
   62.6007   87.3295   34.7889 H   0  0  0  0  0  0  0  0  0  0  0  0
   63.5046   87.2010   33.2419 H   0  0  0  0  0  0  0  0  0  0  0  0
   61.8002   87.7684   33.2419 H   0  0  0  0  0  0  0  0  0  0  0  0
   61.9748   85.5839   35.7275 H   0  0  0  0  0  0  0  0  0  0  0  0
   60.3682   85.4464   34.9357 H   0  0  0  0  0  0  0  0  0  0  0  0
   61.4923   84.0453   34.9357 H   0  0  0  0  0  0  0  0  0  0  0  0
   59.9638   85.9676   32.9593 H   0  0  0  0  0  0  0  0  0  0  0  0
   61.2483   86.3871   31.7003 H   0  0  0  0  0  0  0  0  0  0  0  0
   58.6034   84.7716   31.2737 H   0  0  0  0  0  0  0  0  0  0  0  0
   60.8500   80.4720   29.3500 H   0  0  0  0  0  0  0  0  0  0  0  0
   58.6176   80.9272   27.1964 H   0  0  0  0  0  0  0  0  0  0  0  0
   56.5535   79.6334   26.7590 H   0  0  0  0  0  0  0  0  0  0  0  0
   54.4359   79.4388   27.1470 H   0  0  0  0  0  0  0  0  0  0  0  0
   54.7441   77.7905   26.4661 H   0  0  0  0  0  0  0  0  0  0  0  0
   52.5613   78.5860   28.4543 H   0  0  0  0  0  0  0  0  0  0  0  0
   52.3886   78.0868   26.6854 H   0  0  0  0  0  0  0  0  0  0  0  0
   51.7644   74.8269   27.2664 H   0  0  0  0  0  0  0  0  0  0  0  0
   51.5605   76.3139   26.2796 H   0  0  0  0  0  0  0  0  0  0  0  0
   53.1324   75.4445   26.2796 H   0  0  0  0  0  0  0  0  0  0  0  0
   53.6228   75.1750   29.3333 H   0  0  0  0  0  0  0  0  0  0  0  0
   54.5422   75.5730   27.7984 H   0  0  0  0  0  0  0  0  0  0  0  0
   54.2211   77.4278   30.2009 H   0  0  0  0  0  0  0  0  0  0  0  0
   55.6859   76.4539   29.7981 H   0  0  0  0  0  0  0  0  0  0  0  0
   56.6468   78.1180   30.7793 H   0  0  0  0  0  0  0  0  0  0  0  0
   58.7031   79.4220   31.2212 H   0  0  0  0  0  0  0  0  0  0  0  0
  1  2  1  0
  2  3  1  0
  3  4  2  0
  3  5  1  0
  5  6  2  0
  6  7  1  0
  7  8  1  0
  7  9  1  0
  9 10  2  0
 10 11  1  0
 11 12  1  0
 11 13  1  0
 11 14  1  0
 14 15  1  0
 15 16  2  0
 16 17  1  0
 17 18  2  0
 18 19  1  0
 19 20  1  0
 20 21  1  0
 21 22  2  0
 22 23  1  0
 23 24  1  0
 24 25  1  0
 25 26  1  0
 26 27  1  0
 27 28  1  0
 27 29  1  0
 29 30  1  0
 23 31  2  0
 31 32  1  0
 18 33  1  0
 33 34  2  0
 10  5  1  0
 34 15  1  0
 34  9  1  0
 32 20  2  0
 30 24  1  0
  1 35  1  0
  1 36  1  0
  1 37  1  0
  2 38  1  0
  8 39  1  0
  8 40  1  0
  8 41  1  0
 12 42  1  0
 12 43  1  0
 12 44  1  0
 13 45  1  0
 13 46  1  0
 13 47  1  0
 14 48  1  0
 14 49  1  0
 16 50  1  0
 19 51  1  0
 21 52  1  0
 22 53  1  0
 25 54  1  0
 25 55  1  0
 26 56  1  0
 26 57  1  0
 28 58  1  0
 28 59  1  0
 28 60  1  0
 29 61  1  0
 29 62  1  0
 30 63  1  0
 30 64  1  0
 31 65  1  0
 32 66  1  0
M  END
>  <meeko>  (1) 
{"is_sidechain": false}

>  <smiles>  (1) 
CNC(=O)c1nn(C)c2c1C(C)(C)Cc1cnc(Nc3ccc(N4CCN(C)CC4)cc3)nc1-2

>  <vina_score>  (1) 
-7.864

>  <job_id>  (1) 
206529601242637c

$$$$
