
     RDKit          3D

 51 53  0  0  0  0  0  0  0  0999 V2000
   53.8580   83.1080   26.8960 C   0  0  0  0  0  0  0  0  0  0  0  0
   53.5150   81.7490   27.1400 O   0  0  0  0  0  0  0  0  0  0  0  0
   53.3620   80.9260   26.0500 C   0  0  0  0  0  0  0  0  0  0  0  0
   52.4380   81.1570   25.0240 C   0  0  0  0  0  0  0  0  0  0  0  0
   52.3410   80.2630   23.9640 C   0  0  0  0  0  0  0  0  0  0  0  0
   51.4510   80.4970   22.9890 F   0  0  0  0  0  0  0  0  0  0  0  0
   53.1450   79.1370   23.8960 C   0  0  0  0  0  0  0  0  0  0  0  0
   54.0720   78.9000   24.9100 C   0  0  0  0  0  0  0  0  0  0  0  0
   54.2030   79.7850   26.0010 C   0  0  0  0  0  0  0  0  0  0  0  0
   55.2050   79.4890   27.0450 C   0  0  0  0  0  0  0  0  0  0  0  0
   55.0250   78.4380   27.9480 C   0  0  0  0  0  0  0  0  0  0  0  0
   55.9920   78.2120   28.9110 C   0  0  0  0  0  0  0  0  0  0  0  0
   57.1090   78.9580   29.0440 N   0  0  0  0  0  0  0  0  0  0  0  0
   57.2750   79.9830   28.1810 C   0  0  0  0  0  0  0  0  0  0  0  0
   58.4560   80.6920   28.4000 N   0  0  0  0  0  0  0  0  0  0  0  0
   58.9130   81.2460   29.5760 C   0  0  0  0  0  0  0  0  0  0  0  0
   58.3470   81.1540   30.6570 O   0  0  0  0  0  0  0  0  0  0  0  0
   60.0980   81.9340   29.3550 N   0  0  0  0  0  0  0  0  0  0  0  0
   60.9360   82.5260   30.3210 C   0  0  0  0  0  0  0  0  0  0  0  0
   60.4610   83.6740   30.9630 C   0  0  0  0  0  0  0  0  0  0  0  0
   61.2290   84.3140   31.9370 C   0  0  0  0  0  0  0  0  0  0  0  0
   62.4880   83.8200   32.2680 C   0  0  0  0  0  0  0  0  0  0  0  0
   62.9990   82.6890   31.6170 C   0  0  0  0  0  0  0  0  0  0  0  0
   64.3650   82.1590   31.9640 C   0  0  0  0  0  0  0  0  0  0  0  0
   65.6750   83.0410   31.1140 S   0  0  2  0  0  6  0  0  0  0  0  0
   66.8000   81.7800   30.5460 C   0  0  0  0  0  0  0  0  0  0  0  0
   66.4430   83.9070   32.1360 N   0  0  0  0  0  0  0  0  0  0  0  0
   65.0770   83.6080   29.9180 O   0  0  0  0  0  0  0  0  0  0  0  0
   62.2080   82.0470   30.6460 C   0  0  0  0  0  0  0  0  0  0  0  0
   56.3630   80.2700   27.1750 C   0  0  0  0  0  0  0  0  0  0  0  0
   53.9899   83.6307   27.8548 H   0  0  0  0  0  0  0  0  0  0  0  0
   54.7955   83.1522   26.3223 H   0  0  0  0  0  0  0  0  0  0  0  0
   53.0538   83.5918   26.3223 H   0  0  0  0  0  0  0  0  0  0  0  0
   51.7895   82.0449   25.0566 H   0  0  0  0  0  0  0  0  0  0  0  0
   53.0531   78.4379   23.0517 H   0  0  0  0  0  0  0  0  0  0  0  0
   54.7126   78.0073   24.8586 H   0  0  0  0  0  0  0  0  0  0  0  0
   54.1297   77.8012   27.8940 H   0  0  0  0  0  0  0  0  0  0  0  0
   55.8419   77.3754   29.6092 H   0  0  0  0  0  0  0  0  0  0  0  0
   59.0950   80.6030   27.6270 H   0  0  0  0  0  0  0  0  0  0  0  0
   60.2790   82.1810   28.3940 H   0  0  0  0  0  0  0  0  0  0  0  0
   59.4723   84.0766   30.6977 H   0  0  0  0  0  0  0  0  0  0  0  0
   60.8393   85.2093   32.4435 H   0  0  0  0  0  0  0  0  0  0  0  0
   63.0849   84.3202   33.0448 H   0  0  0  0  0  0  0  0  0  0  0  0
   64.5178   82.2587   33.0488 H   0  0  0  0  0  0  0  0  0  0  0  0
   64.4076   81.1066   31.6467 H   0  0  0  0  0  0  0  0  0  0  0  0
   67.2513   81.2741   31.4122 H   0  0  0  0  0  0  0  0  0  0  0  0
   66.2512   81.0460   29.9377 H   0  0  0  0  0  0  0  0  0  0  0  0
   67.5916   82.2418   29.9377 H   0  0  0  0  0  0  0  0  0  0  0  0
   67.1810   84.4500   31.6850 H   0  0  0  0  0  0  0  0  0  0  0  0
   62.5971   81.1541   30.1348 H   0  0  0  0  0  0  0  0  0  0  0  0
   56.5472   81.1053   26.4834 H   0  0  0  0  0  0  0  0  0  0  0  0
  1  2  1  0
  2  3  1  0
  3  4  1  0
  4  5  2  0
  5  6  1  0
  5  7  1  0
  7  8  2  0
  8  9  1  0
  9 10  1  0
 10 11  2  0
 11 12  1  0
 12 13  2  0
 13 14  1  0
 14 15  1  0
 15 16  1  0
 16 17  2  0
 16 18  1  0
 18 19  1  0
 19 20  1  0
 20 21  2  0
 21 22  1  0
 22 23  2  0
 23 24  1  0
 25 24  1  1
 25 26  1  0
 25 27  2  0
 25 28  2  0
 23 29  1  0
 14 30  2  0
  9  3  2  0
 30 10  1  0
 29 19  2  0
  1 31  1  0
  1 32  1  0
  1 33  1  0
  4 34  1  0
  7 35  1  0
  8 36  1  0
 11 37  1  0
 12 38  1  0
 15 39  1  0
 18 40  1  0
 20 41  1  0
 21 42  1  0
 22 43  1  0
 24 44  1  0
 24 45  1  0
 26 46  1  0
 26 47  1  0
 26 48  1  0
 27 49  1  0
 29 50  1  0
 30 51  1  0
M  END
>  <meeko>  (1) 
{"is_sidechain": false}

>  <smiles>  (1) 
COc1cc(F)ccc1-c1ccnc(NC(=O)Nc2cccc(C[S@](C)(=N)=O)c2)c1

>  <vina_score>  (1) 
-8.320

>  <job_id>  (1) 
208db3c2aa103cf0

$$$$
