
     RDKit          3D

 63 66  0  0  0  0  0  0  0  0999 V2000
   52.8780   81.5950   23.9170 C   0  0  0  0  0  0  0  0  0  0  0  0
   53.1970   80.3750   24.7020 C   0  0  0  0  0  0  0  0  0  0  0  0
   52.9410   79.1570   24.2730 N   0  0  0  0  0  0  0  0  0  0  0  0
   53.3990   78.3140   25.2400 C   0  0  0  0  0  0  0  0  0  0  0  0
   53.9600   79.0060   26.2960 C   0  0  0  0  0  0  0  0  0  0  0  0
   54.6030   78.4750   27.4960 C   0  0  0  0  0  0  0  0  0  0  0  0
   55.8940   78.8440   27.6620 N   0  0  0  0  0  0  0  0  0  0  0  0
   56.5510   78.3570   28.7310 C   0  0  0  0  0  0  0  0  0  0  0  0
   57.8740   78.7740   28.8400 N   0  0  0  0  0  0  0  0  0  0  0  0
   58.5070   79.8410   29.4860 C   0  0  0  0  0  0  0  0  0  0  0  0
   59.2480   80.8280   28.8230 C   0  0  0  0  0  0  0  0  0  0  0  0
   59.8840   81.8570   29.5280 C   0  0  0  0  0  0  0  0  0  0  0  0
   59.8080   81.8940   30.9190 C   0  0  0  0  0  0  0  0  0  0  0  0
   60.4650   82.9970   31.6490 C   0  0  0  0  0  0  0  0  0  0  0  0
   59.7820   83.6300   32.4510 O   0  0  0  0  0  0  0  0  0  0  0  0
   61.8180   83.2600   31.4100 N   0  0  0  0  0  0  0  0  0  0  0  0
   62.3290   84.5820   31.0540 C   0  0  0  0  0  0  0  0  0  0  0  0
   63.3840   85.0950   32.0350 C   0  0  0  0  0  0  0  0  0  0  0  0
   64.7570   84.4290   31.8180 C   0  0  0  0  0  0  0  0  0  0  0  0
   64.8380   83.3340   30.8490 N   0  0  0  0  0  0  0  0  0  0  0  0
   66.2260   82.9450   30.5850 C   0  0  0  0  0  0  0  0  0  0  0  0
   64.0250   82.1350   31.1230 C   0  0  0  0  0  0  0  0  0  0  0  0
   62.7850   82.3380   32.0130 C   0  0  0  0  0  0  0  0  0  0  0  0
   59.0670   80.9310   31.6050 C   0  0  0  0  0  0  0  0  0  0  0  0
   58.4340   79.9100   30.8900 C   0  0  0  0  0  0  0  0  0  0  0  0
   55.9820   77.5440   29.6340 N   0  0  0  0  0  0  0  0  0  0  0  0
   54.6960   77.1900   29.4300 C   0  0  0  0  0  0  0  0  0  0  0  0
   53.9550   77.6260   28.3650 C   0  0  0  0  0  0  0  0  0  0  0  0
   52.6820   77.2450   28.2090 F   0  0  0  0  0  0  0  0  0  0  0  0
   53.7730   80.3450   25.9620 N   0  0  0  0  0  0  0  0  0  0  0  0
   54.0990   81.4850   26.8190 C   0  0  0  0  0  0  0  0  0  0  0  0
   55.4180   82.1460   26.4180 C   0  0  0  0  0  0  0  0  0  0  0  0
   52.9720   82.5130   26.9600 C   0  0  0  0  0  0  0  0  0  0  0  0
   52.6606   82.4264   24.6037 H   0  0  0  0  0  0  0  0  0  0  0  0
   53.7375   81.8582   23.2830 H   0  0  0  0  0  0  0  0  0  0  0  0
   51.9996   81.4038   23.2830 H   0  0  0  0  0  0  0  0  0  0  0  0
   53.3306   77.2174   25.1867 H   0  0  0  0  0  0  0  0  0  0  0  0
   58.4730   78.0580   28.4560 H   0  0  0  0  0  0  0  0  0  0  0  0
   59.3318   80.7938   27.7267 H   0  0  0  0  0  0  0  0  0  0  0  0
   60.4422   82.6342   28.9853 H   0  0  0  0  0  0  0  0  0  0  0  0
   62.7789   84.5264   30.0518 H   0  0  0  0  0  0  0  0  0  0  0  0
   61.4817   85.2829   31.0834 H   0  0  0  0  0  0  0  0  0  0  0  0
   63.4927   86.1814   31.9015 H   0  0  0  0  0  0  0  0  0  0  0  0
   63.0466   84.8472   33.0522 H   0  0  0  0  0  0  0  0  0  0  0  0
   65.4535   85.2131   31.4863 H   0  0  0  0  0  0  0  0  0  0  0  0
   64.9949   83.9619   32.7851 H   0  0  0  0  0  0  0  0  0  0  0  0
   66.7532   82.7973   31.5391 H   0  0  0  0  0  0  0  0  0  0  0  0
   66.2410   82.0081   30.0089 H   0  0  0  0  0  0  0  0  0  0  0  0
   66.7257   83.7377   30.0089 H   0  0  0  0  0  0  0  0  0  0  0  0
   63.6821   81.7352   30.1573 H   0  0  0  0  0  0  0  0  0  0  0  0
   64.6830   81.4584   31.6881 H   0  0  0  0  0  0  0  0  0  0  0  0
   62.2972   81.3645   32.1689 H   0  0  0  0  0  0  0  0  0  0  0  0
   63.1198   82.7740   32.9658 H   0  0  0  0  0  0  0  0  0  0  0  0
   58.9815   80.9749   32.7008 H   0  0  0  0  0  0  0  0  0  0  0  0
   57.8660   79.1431   31.4370 H   0  0  0  0  0  0  0  0  0  0  0  0
   54.2186   76.5164   30.1569 H   0  0  0  0  0  0  0  0  0  0  0  0
   54.2262   81.0544   27.8232 H   0  0  0  0  0  0  0  0  0  0  0  0
   55.9775   82.4264   27.3226 H   0  0  0  0  0  0  0  0  0  0  0  0
   56.0151   81.4406   25.8214 H   0  0  0  0  0  0  0  0  0  0  0  0
   55.2103   83.0466   25.8214 H   0  0  0  0  0  0  0  0  0  0  0  0
   52.7728   82.6947   28.0264 H   0  0  0  0  0  0  0  0  0  0  0  0
   53.2723   83.4548   26.4774 H   0  0  0  0  0  0  0  0  0  0  0  0
   52.0617   82.1277   26.4774 H   0  0  0  0  0  0  0  0  0  0  0  0
  1  2  1  0
  2  3  2  0
  3  4  1  0
  4  5  2  0
  5  6  1  0
  6  7  2  0
  7  8  1  0
  8  9  1  0
  9 10  1  0
 10 11  1  0
 11 12  2  0
 12 13  1  0
 13 14  1  0
 14 15  2  0
 14 16  1  0
 16 17  1  0
 17 18  1  0
 18 19  1  0
 19 20  1  0
 20 21  1  0
 20 22  1  0
 22 23  1  0
 13 24  2  0
 24 25  1  0
  8 26  2  0
 26 27  1  0
 27 28  2  0
 28 29  1  0
  5 30  1  0
 30 31  1  0
 31 32  1  0
 31 33  1  0
 30  2  1  0
 28  6  1  0
 25 10  2  0
 23 16  1  0
  1 34  1  0
  1 35  1  0
  1 36  1  0
  4 37  1  0
  9 38  1  0
 11 39  1  0
 12 40  1  0
 17 41  1  0
 17 42  1  0
 18 43  1  0
 18 44  1  0
 19 45  1  0
 19 46  1  0
 21 47  1  0
 21 48  1  0
 21 49  1  0
 22 50  1  0
 22 51  1  0
 23 52  1  0
 23 53  1  0
 24 54  1  0
 25 55  1  0
 27 56  1  0
 31 57  1  0
 32 58  1  0
 32 59  1  0
 32 60  1  0
 33 61  1  0
 33 62  1  0
 33 63  1  0
M  END
>  <meeko>  (1) 
{"is_sidechain": false}

>  <smiles>  (1) 
Cc1ncc(-c2nc(Nc3ccc(C(=O)N4CCCN(C)CC4)cc3)ncc2F)n1C(C)C

>  <vina_score>  (1) 
-7.510

>  <job_id>  (1) 
20ff6eefe2b93086

$$$$
