
     RDKit          3D

 35 36  0  0  0  0  0  0  0  0999 V2000
   59.8260   81.3390   29.4400 C   0  0  0  0  0  0  0  0  0  0  0  0
   58.4130   81.0580   29.6490 N   0  0  0  0  0  0  0  0  0  0  0  0
   57.8400   79.5160   29.3150 S   0  0  0  0  0  0  0  0  0  0  0  0
   58.9340   78.7340   28.7870 O   0  0  0  0  0  0  0  0  0  0  0  0
   57.0950   79.0980   30.4820 O   0  0  0  0  0  0  0  0  0  0  0  0
   56.6710   79.8270   28.0190 C   0  0  0  0  0  0  0  0  0  0  0  0
   56.8220   80.9620   27.2200 C   0  0  0  0  0  0  0  0  0  0  0  0
   55.8940   81.2210   26.2070 C   0  0  0  0  0  0  0  0  0  0  0  0
   54.8050   80.3600   25.9830 C   0  0  0  0  0  0  0  0  0  0  0  0
   53.8270   80.6380   24.9160 C   0  0  0  0  0  0  0  0  0  0  0  0
   53.2660   79.5930   24.1610 C   0  0  0  0  0  0  0  0  0  0  0  0
   52.3410   79.8520   23.1460 C   0  0  0  0  0  0  0  0  0  0  0  0
   51.9620   81.1700   22.8830 C   0  0  0  0  0  0  0  0  0  0  0  0
   50.7960   81.4970   21.5880 S   0  0  0  0  0  0  0  0  0  0  0  0
   49.3510   81.0110   22.3060 N   0  0  0  0  0  0  0  0  0  0  0  0
   50.6850   82.9280   21.4200 O   0  0  0  0  0  0  0  0  0  0  0  0
   51.0690   80.6030   20.4880 O   0  0  0  0  0  0  0  0  0  0  0  0
   52.5120   82.2270   23.6080 C   0  0  0  0  0  0  0  0  0  0  0  0
   53.4360   81.9560   24.6210 C   0  0  0  0  0  0  0  0  0  0  0  0
   54.6720   79.2280   26.8080 C   0  0  0  0  0  0  0  0  0  0  0  0
   55.5950   78.9610   27.8240 C   0  0  0  0  0  0  0  0  0  0  0  0
   60.3279   81.4388   30.4137 H   0  0  0  0  0  0  0  0  0  0  0  0
   60.2841   80.5144   28.8742 H   0  0  0  0  0  0  0  0  0  0  0  0
   59.9337   82.2761   28.8742 H   0  0  0  0  0  0  0  0  0  0  0  0
   57.9390   81.4930   30.4390 H   0  0  0  0  0  0  0  0  0  0  0  0
   57.6657   81.6479   27.3865 H   0  0  0  0  0  0  0  0  0  0  0  0
   56.0177   82.1127   25.5749 H   0  0  0  0  0  0  0  0  0  0  0  0
   53.5600   78.5544   24.3727 H   0  0  0  0  0  0  0  0  0  0  0  0
   51.9151   79.0247   22.5593 H   0  0  0  0  0  0  0  0  0  0  0  0
   49.4290   80.8690   23.3120 H   0  0  0  0  0  0  0  0  0  0  0  0
   48.6230   81.6880   22.0720 H   0  0  0  0  0  0  0  0  0  0  0  0
   52.2213   83.2641   23.3846 H   0  0  0  0  0  0  0  0  0  0  0  0
   53.8650   82.7887   25.1978 H   0  0  0  0  0  0  0  0  0  0  0  0
   53.8273   78.5411   26.6510 H   0  0  0  0  0  0  0  0  0  0  0  0
   55.4735   78.0750   28.4644 H   0  0  0  0  0  0  0  0  0  0  0  0
  1  2  1  0
  2  3  1  0
  3  4  2  0
  3  5  2  0
  3  6  1  0
  6  7  1  0
  7  8  2  0
  8  9  1  0
  9 10  1  0
 10 11  1  0
 11 12  2  0
 12 13  1  0
 13 14  1  0
 14 15  1  0
 14 16  2  0
 14 17  2  0
 13 18  2  0
 18 19  1  0
  9 20  2  0
 20 21  1  0
 21  6  2  0
 19 10  2  0
  1 22  1  0
  1 23  1  0
  1 24  1  0
  2 25  1  0
  7 26  1  0
  8 27  1  0
 11 28  1  0
 12 29  1  0
 15 30  1  0
 15 31  1  0
 18 32  1  0
 19 33  1  0
 20 34  1  0
 21 35  1  0
M  END
>  <meeko>  (1) 
{"is_sidechain": false}

>  <smiles>  (1) 
CNS(=O)(=O)c1ccc(-c2ccc(S(N)(=O)=O)cc2)cc1

>  <vina_score>  (1) 
-7.393

>  <job_id>  (1) 
211c602e5b0cbd8b

$$$$
