
     RDKit          3D

 51 54  0  0  0  0  0  0  0  0999 V2000
   62.6900   82.5720   33.0400 O   0  0  0  0  0  0  0  0  0  0  0  0
   62.3180   82.8920   31.6800 S   0  0  0  0  0  0  0  0  0  0  0  0
   62.0810   84.2490   31.2440 O   0  0  0  0  0  0  0  0  0  0  0  0
   63.4810   82.2220   30.6700 N   0  0  0  0  0  0  0  0  0  0  0  0
   64.8260   81.9700   31.2250 C   0  0  0  0  0  0  0  0  0  0  0  0
   65.7360   83.1520   30.8730 C   0  0  0  0  0  0  0  0  0  0  0  0
   65.2140   83.8510   29.7340 O   0  0  0  0  0  0  0  0  0  0  0  0
   65.5550   85.2420   29.6880 C   0  0  0  0  0  0  0  0  0  0  0  0
   66.3570   85.5890   28.4310 C   0  0  0  0  0  0  0  0  0  0  0  0
   65.6850   85.1060   27.2700 O   0  0  0  0  0  0  0  0  0  0  0  0
   60.8740   81.9250   31.2930 C   0  0  0  0  0  0  0  0  0  0  0  0
   60.5160   81.7460   29.9530 C   0  0  0  0  0  0  0  0  0  0  0  0
   59.3720   81.0080   29.6430 C   0  0  0  0  0  0  0  0  0  0  0  0
   58.6020   80.4360   30.6610 C   0  0  0  0  0  0  0  0  0  0  0  0
   57.4420   79.7150   30.3490 N   0  0  0  0  0  0  0  0  0  0  0  0
   57.2890   79.4170   29.0920 C   0  0  0  0  0  0  0  0  0  0  0  0
   56.1080   78.6720   28.7010 C   0  0  0  0  0  0  0  0  0  0  0  0
   55.7400   77.4680   29.2960 C   0  0  0  0  0  0  0  0  0  0  0  0
   56.3100   76.7650   30.2690 O   0  0  0  0  0  0  0  0  0  0  0  0
   54.5890   77.0040   28.7200 N   0  0  0  0  0  0  0  0  0  0  0  0
   54.1670   77.8670   27.7460 C   0  0  0  0  0  0  0  0  0  0  0  0
   53.0670   77.8470   26.8840 C   0  0  0  0  0  0  0  0  0  0  0  0
   52.9210   78.9210   25.9750 C   0  0  0  0  0  0  0  0  0  0  0  0
   53.8530   79.9810   25.9380 C   0  0  0  0  0  0  0  0  0  0  0  0
   53.8430   81.0910   25.1110 N   0  0  0  0  0  0  0  0  0  0  0  0
   54.8890   81.8400   25.3930 C   0  0  0  0  0  0  0  0  0  0  0  0
   55.9190   81.2620   26.6420 S   0  0  0  0  0  0  0  0  0  0  0  0
   54.9210   79.9400   26.8200 C   0  0  0  0  0  0  0  0  0  0  0  0
   55.0880   78.9060   27.7150 C   0  0  0  0  0  0  0  0  0  0  0  0
   58.9730   80.6210   31.9970 C   0  0  0  0  0  0  0  0  0  0  0  0
   60.1140   81.3580   32.3190 C   0  0  0  0  0  0  0  0  0  0  0  0
   63.4930   82.6650   29.7460 H   0  0  0  0  0  0  0  0  0  0  0  0
   64.7612   81.8663   32.3182 H   0  0  0  0  0  0  0  0  0  0  0  0
   65.2375   81.0426   30.8001 H   0  0  0  0  0  0  0  0  0  0  0  0
   65.7879   83.8396   31.7300 H   0  0  0  0  0  0  0  0  0  0  0  0
   66.7418   82.7751   30.6356 H   0  0  0  0  0  0  0  0  0  0  0  0
   64.6292   85.8361   29.6951 H   0  0  0  0  0  0  0  0  0  0  0  0
   66.1780   85.4707   30.5653 H   0  0  0  0  0  0  0  0  0  0  0  0
   66.4664   86.6812   28.3596 H   0  0  0  0  0  0  0  0  0  0  0  0
   67.3480   85.1160   28.4953 H   0  0  0  0  0  0  0  0  0  0  0  0
   65.4170   85.8810   26.7480 H   0  0  0  0  0  0  0  0  0  0  0  0
   61.1297   82.1823   29.1511 H   0  0  0  0  0  0  0  0  0  0  0  0
   59.0746   80.8757   28.5923 H   0  0  0  0  0  0  0  0  0  0  0  0
   58.0364   79.7223   28.3449 H   0  0  0  0  0  0  0  0  0  0  0  0
   56.5480   77.4230   30.9610 H   0  0  0  0  0  0  0  0  0  0  0  0
   54.1320   76.1450   28.9900 H   0  0  0  0  0  0  0  0  0  0  0  0
   52.3387   77.0231   26.9115 H   0  0  0  0  0  0  0  0  0  0  0  0
   52.0652   78.9305   25.2839 H   0  0  0  0  0  0  0  0  0  0  0  0
   55.0917   82.7808   24.8602 H   0  0  0  0  0  0  0  0  0  0  0  0
   58.3614   80.1827   32.7994 H   0  0  0  0  0  0  0  0  0  0  0  0
   60.4116   81.4909   33.3696 H   0  0  0  0  0  0  0  0  0  0  0  0
  1  2  2  0
  2  3  2  0
  2  4  1  0
  4  5  1  0
  5  6  1  0
  6  7  1  0
  7  8  1  0
  8  9  1  0
  9 10  1  0
  2 11  1  0
 11 12  1  0
 12 13  2  0
 13 14  1  0
 14 15  1  0
 15 16  2  3
 16 17  1  0
 17 18  2  0
 18 19  1  0
 18 20  1  0
 20 21  1  0
 21 22  2  0
 22 23  1  0
 23 24  2  0
 24 25  1  0
 25 26  2  0
 26 27  1  0
 27 28  1  0
 28 29  2  0
 14 30  2  0
 30 31  1  0
 31 11  2  0
 29 17  1  0
 29 21  1  0
 28 24  1  0
  4 32  1  0
  5 33  1  0
  5 34  1  0
  6 35  1  0
  6 36  1  0
  8 37  1  0
  8 38  1  0
  9 39  1  0
  9 40  1  0
 10 41  1  0
 12 42  1  0
 13 43  1  0
 16 44  1  0
 19 45  1  0
 20 46  1  0
 22 47  1  0
 23 48  1  0
 26 49  1  0
 30 50  1  0
 31 51  1  0
M  END
>  <meeko>  (1) 
{"is_sidechain": false}

>  <smiles>  (1) 
O=S(=O)(NCCOCCO)c1ccc(N=Cc2c(O)[nH]c3ccc4ncsc4c23)cc1

>  <vina_score>  (1) 
-7.746

>  <job_id>  (1) 
21630d528406ac86

$$$$
