
     RDKit          3D

 56 60  0  0  0  0  0  0  0  0999 V2000
   51.0420   80.6070   20.8620 N   0  0  0  0  0  0  0  0  0  0  0  0
   51.9560   81.9450   21.3240 S   0  0  0  0  0  0  0  0  0  0  0  0
   53.1660   81.8760   20.5360 O   0  0  0  0  0  0  0  0  0  0  0  0
   51.0890   83.0980   21.3190 O   0  0  0  0  0  0  0  0  0  0  0  0
   52.3470   81.5390   23.0030 C   0  0  0  0  0  0  0  0  0  0  0  0
   52.4610   80.2000   23.3880 C   0  0  0  0  0  0  0  0  0  0  0  0
   52.7630   79.8950   24.7170 C   0  0  0  0  0  0  0  0  0  0  0  0
   52.9480   80.9130   25.6580 C   0  0  0  0  0  0  0  0  0  0  0  0
   53.2800   80.5980   26.9800 N   0  0  0  0  0  0  0  0  0  0  0  0
   54.4620   80.1290   27.2380 C   0  0  0  0  0  0  0  0  0  0  0  0
   55.4060   79.9260   26.2690 N   0  0  0  0  0  0  0  0  0  0  0  0
   56.6400   80.2090   26.5410 C   0  0  0  0  0  0  0  0  0  0  0  0
   57.0670   80.7140   27.7440 N   0  0  0  0  0  0  0  0  0  0  0  0
   58.1100   80.1410   28.1250 N   0  0  0  0  0  0  0  0  0  0  0  0
   58.5280   80.6580   29.3650 C   0  0  0  0  0  0  0  0  0  0  0  0
   58.8880   82.0050   29.4610 C   0  0  0  0  0  0  0  0  0  0  0  0
   59.2840   82.5510   30.6860 C   0  0  0  0  0  0  0  0  0  0  0  0
   59.3100   81.7570   31.8360 C   0  0  0  0  0  0  0  0  0  0  0  0
   59.8250   82.4570   33.3920 S   0  0  0  0  0  0  0  0  0  0  0  0
   61.4770   82.0370   33.3260 C   0  0  0  0  0  0  0  0  0  0  0  0
   61.9700   80.7720   33.9690 C   0  0  0  0  0  0  0  0  0  0  0  0
   61.3220   79.9440   34.5820 O   0  0  0  0  0  0  0  0  0  0  0  0
   63.3240   80.7230   33.7230 N   0  0  0  0  0  0  0  0  0  0  0  0
   63.7150   81.8050   33.0120 C   0  0  0  0  0  0  0  0  0  0  0  0
   64.9350   82.1070   32.5600 C   0  0  0  0  0  0  0  0  0  0  0  0
   65.1310   83.3250   31.7900 C   0  0  0  0  0  0  0  0  0  0  0  0
   64.1280   84.1890   31.5150 C   0  0  0  0  0  0  0  0  0  0  0  0
   64.2980   85.3540   30.7890 N   0  0  0  0  0  0  0  0  0  0  0  0
   63.2790   86.2430   30.5630 C   0  0  0  0  0  0  0  0  0  0  0  0
   62.0390   86.0250   31.0200 C   0  0  0  0  0  0  0  0  0  0  0  0
   61.7700   84.8090   31.7730 C   0  0  0  0  0  0  0  0  0  0  0  0
   62.7380   83.8970   32.0260 C   0  0  0  0  0  0  0  0  0  0  0  0
   62.5470   82.6450   32.7780 C   0  0  0  0  0  0  0  0  0  0  0  0
   58.9430   80.4110   31.7490 C   0  0  0  0  0  0  0  0  0  0  0  0
   58.5480   79.8680   30.5230 C   0  0  0  0  0  0  0  0  0  0  0  0
   52.8620   82.2480   25.2500 C   0  0  0  0  0  0  0  0  0  0  0  0
   52.5600   82.5680   23.9250 C   0  0  0  0  0  0  0  0  0  0  0  0
   50.5780   80.1510   21.6480 H   0  0  0  0  0  0  0  0  0  0  0  0
   51.6430   79.9620   20.3460 H   0  0  0  0  0  0  0  0  0  0  0  0
   52.3145   79.3955   22.6523 H   0  0  0  0  0  0  0  0  0  0  0  0
   52.8563   78.8436   25.0267 H   0  0  0  0  0  0  0  0  0  0  0  0
   54.7157   79.8843   28.2800 H   0  0  0  0  0  0  0  0  0  0  0  0
   57.3935   80.0337   25.7590 H   0  0  0  0  0  0  0  0  0  0  0  0
   58.8596   82.6417   28.5645 H   0  0  0  0  0  0  0  0  0  0  0  0
   59.5763   83.6098   30.7448 H   0  0  0  0  0  0  0  0  0  0  0  0
   63.9110   79.9660   34.0380 H   0  0  0  0  0  0  0  0  0  0  0  0
   65.7845   81.4400   32.7684 H   0  0  0  0  0  0  0  0  0  0  0  0
   66.1395   83.5534   31.4148 H   0  0  0  0  0  0  0  0  0  0  0  0
   65.2270   85.5860   30.4580 H   0  0  0  0  0  0  0  0  0  0  0  0
   63.4853   87.1597   29.9911 H   0  0  0  0  0  0  0  0  0  0  0  0
   61.2370   86.7533   30.8293 H   0  0  0  0  0  0  0  0  0  0  0  0
   60.7519   84.6258   32.1470 H   0  0  0  0  0  0  0  0  0  0  0  0
   58.9651   79.7773   32.6479 H   0  0  0  0  0  0  0  0  0  0  0  0
   58.2500   78.8107   30.4663 H   0  0  0  0  0  0  0  0  0  0  0  0
   53.0338   83.0531   25.9796 H   0  0  0  0  0  0  0  0  0  0  0  0
   52.4903   83.6195   23.6096 H   0  0  0  0  0  0  0  0  0  0  0  0
  1  2  1  0
  2  3  2  0
  2  4  2  0
  2  5  1  0
  5  6  1  0
  6  7  2  0
  7  8  1  0
  8  9  1  0
  9 10  2  3
 10 11  1  0
 11 12  2  3
 12 13  1  0
 13 14  2  3
 14 15  1  0
 15 16  1  0
 16 17  2  0
 17 18  1  0
 18 19  1  0
 19 20  1  0
 20 21  1  0
 21 22  2  0
 21 23  1  0
 23 24  1  0
 24 25  2  0
 25 26  1  0
 26 27  2  0
 27 28  1  0
 28 29  1  0
 29 30  2  0
 30 31  1  0
 31 32  2  0
 32 33  1  0
 18 34  2  0
 34 35  1  0
  8 36  2  0
 36 37  1  0
 37  5  2  0
 35 15  2  0
 33 20  2  0
 33 24  1  0
 32 27  1  0
  1 38  1  0
  1 39  1  0
  6 40  1  0
  7 41  1  0
 10 42  1  0
 12 43  1  0
 16 44  1  0
 17 45  1  0
 23 46  1  0
 25 47  1  0
 26 48  1  0
 28 49  1  0
 29 50  1  0
 30 51  1  0
 31 52  1  0
 34 53  1  0
 35 54  1  0
 36 55  1  0
 37 56  1  0
M  END
>  <meeko>  (1) 
{"is_sidechain": false}

>  <smiles>  (1) 
NS(=O)(=O)c1ccc(N=CN=CN=Nc2ccc(Sc3c(=O)[nH]c4ccc5[nH]cccc5c34)cc2)cc1

>  <vina_score>  (1) 
-8.543

>  <job_id>  (1) 
22b90f8cc09f8308

$$$$
