
     RDKit          3D

 38 39  0  0  0  0  0  0  0  0999 V2000
   52.9360   76.9650   27.7610 C   0  0  0  0  0  0  0  0  0  0  0  0
   54.0390   77.2950   28.7700 C   0  0  0  0  0  0  0  0  0  0  0  0
   54.8100   76.0320   29.1670 C   0  0  0  0  0  0  0  0  0  0  0  0
   54.9700   78.3750   28.2480 C   0  0  0  0  0  0  0  0  0  0  0  0
   56.3460   78.3490   28.5090 C   0  0  0  0  0  0  0  0  0  0  0  0
   57.1750   79.3570   28.0200 C   0  0  0  0  0  0  0  0  0  0  0  0
   56.6400   80.4030   27.2660 C   0  0  0  0  0  0  0  0  0  0  0  0
   55.2740   80.4570   26.9800 C   0  0  0  0  0  0  0  0  0  0  0  0
   54.6860   81.5080   26.2540 N   0  0  0  0  0  0  0  0  0  0  0  0
   53.8410   81.5170   25.1300 C   0  0  0  0  0  0  0  0  0  0  0  0
   53.1440   82.6960   24.8220 C   0  0  0  0  0  0  0  0  0  0  0  0
   52.2570   82.7500   23.7420 C   0  0  0  0  0  0  0  0  0  0  0  0
   52.0540   81.6100   22.9650 C   0  0  0  0  0  0  0  0  0  0  0  0
   50.9340   81.6790   21.5940 S   0  0  0  0  0  0  0  0  0  0  0  0
   49.5270   81.0520   22.2790 N   0  0  0  0  0  0  0  0  0  0  0  0
   50.6920   83.0640   21.2700 O   0  0  0  0  0  0  0  0  0  0  0  0
   51.3500   80.7090   20.6080 O   0  0  0  0  0  0  0  0  0  0  0  0
   52.7400   80.4290   23.2460 C   0  0  0  0  0  0  0  0  0  0  0  0
   53.6200   80.3880   24.3320 C   0  0  0  0  0  0  0  0  0  0  0  0
   54.4520   79.4350   27.4840 C   0  0  0  0  0  0  0  0  0  0  0  0
   52.0170   76.6900   28.2993 H   0  0  0  0  0  0  0  0  0  0  0  0
   52.7418   77.8444   27.1294 H   0  0  0  0  0  0  0  0  0  0  0  0
   53.2567   76.1235   27.1294 H   0  0  0  0  0  0  0  0  0  0  0  0
   53.5575   77.6948   29.6746 H   0  0  0  0  0  0  0  0  0  0  0  0
   54.8545   75.9591   30.2637 H   0  0  0  0  0  0  0  0  0  0  0  0
   54.2979   75.1471   28.7612 H   0  0  0  0  0  0  0  0  0  0  0  0
   55.8311   76.0830   28.7612 H   0  0  0  0  0  0  0  0  0  0  0  0
   56.7746   77.5285   29.1032 H   0  0  0  0  0  0  0  0  0  0  0  0
   58.2546   79.3283   28.2289 H   0  0  0  0  0  0  0  0  0  0  0  0
   57.3039   81.1962   26.8917 H   0  0  0  0  0  0  0  0  0  0  0  0
   54.9840   82.4300   26.5530 H   0  0  0  0  0  0  0  0  0  0  0  0
   53.2981   83.5925   25.4405 H   0  0  0  0  0  0  0  0  0  0  0  0
   51.7243   83.6834   23.5076 H   0  0  0  0  0  0  0  0  0  0  0  0
   49.7460   80.7040   23.2140 H   0  0  0  0  0  0  0  0  0  0  0  0
   48.7560   81.7180   22.2920 H   0  0  0  0  0  0  0  0  0  0  0  0
   52.5903   79.5376   22.6191 H   0  0  0  0  0  0  0  0  0  0  0  0
   54.1484   79.4514   24.5636 H   0  0  0  0  0  0  0  0  0  0  0  0
   53.3725   79.4653   27.2747 H   0  0  0  0  0  0  0  0  0  0  0  0
  1  2  1  0
  2  3  1  0
  2  4  1  0
  4  5  2  0
  5  6  1  0
  6  7  2  0
  7  8  1  0
  8  9  1  0
  9 10  1  0
 10 11  1  0
 11 12  2  0
 12 13  1  0
 13 14  1  0
 14 15  1  0
 14 16  2  0
 14 17  2  0
 13 18  2  0
 18 19  1  0
  8 20  2  0
 20  4  1  0
 19 10  2  0
  1 21  1  0
  1 22  1  0
  1 23  1  0
  2 24  1  0
  3 25  1  0
  3 26  1  0
  3 27  1  0
  5 28  1  0
  6 29  1  0
  7 30  1  0
  9 31  1  0
 11 32  1  0
 12 33  1  0
 15 34  1  0
 15 35  1  0
 18 36  1  0
 19 37  1  0
 20 38  1  0
M  END
>  <meeko>  (1) 
{"is_sidechain": false}

>  <smiles>  (1) 
CC(C)c1cccc(Nc2ccc(S(N)(=O)=O)cc2)c1

>  <vina_score>  (1) 
-8.301

>  <job_id>  (1) 
22bda7d8acf4b720

$$$$
