
     RDKit          3D

 54 59  0  0  0  0  0  0  0  0999 V2000
   61.0580   84.3360   32.8540 C   0  0  0  0  0  0  0  0  0  0  0  0
   60.0770   84.6240   31.8200 N   0  0  0  0  0  0  0  0  0  0  0  0
   59.1230   83.7970   31.5890 C   0  0  0  0  0  0  0  0  0  0  0  0
   58.1900   84.0850   30.6460 N   0  0  0  0  0  0  0  0  0  0  0  0
   58.8490   82.2880   32.4210 S   0  0  0  0  0  0  0  0  0  0  0  0
   59.7220   81.1580   31.2940 C   0  0  0  0  0  0  0  0  0  0  0  0
   58.8960   79.9180   30.9640 C   0  0  0  0  0  0  0  0  0  0  0  0
   58.9340   79.6270   29.4610 C   0  0  0  0  0  0  0  0  0  0  0  0
   57.6590   79.8960   28.8200 N   0  0  0  0  0  0  0  0  0  0  0  0
   57.3190   81.0860   28.2850 C   0  0  0  0  0  0  0  0  0  0  0  0
   57.9780   82.1070   28.3620 O   0  0  0  0  0  0  0  0  0  0  0  0
   56.0350   80.9120   27.5500 C   0  0  0  0  0  0  0  0  0  0  0  0
   55.6900   79.6150   27.6650 C   0  0  0  0  0  0  0  0  0  0  0  0
   56.8360   78.9450   28.3370 C   0  0  0  0  0  0  0  0  0  0  0  0
   57.0600   77.7470   28.3590 O   0  0  0  0  0  0  0  0  0  0  0  0
   54.5500   78.9470   27.1960 N   0  0  0  0  0  0  0  0  0  0  0  0
   54.0790   77.7000   27.6640 C   0  0  0  0  0  0  0  0  0  0  0  0
   54.3640   76.9590   28.8310 C   0  0  0  0  0  0  0  0  0  0  0  0
   53.8010   75.6870   28.9830 C   0  0  0  0  0  0  0  0  0  0  0  0
   52.9580   75.1610   28.0140 C   0  0  0  0  0  0  0  0  0  0  0  0
   52.6330   75.9130   26.8840 C   0  0  0  0  0  0  0  0  0  0  0  0
   53.1800   77.2020   26.7270 C   0  0  0  0  0  0  0  0  0  0  0  0
   52.9670   78.2310   25.7960 C   0  0  0  0  0  0  0  0  0  0  0  0
   53.6480   79.3740   26.2080 C   0  0  0  0  0  0  0  0  0  0  0  0
   53.4710   80.7280   25.6600 C   0  0  0  0  0  0  0  0  0  0  0  0
   52.4320   80.9850   24.7330 C   0  0  0  0  0  0  0  0  0  0  0  0
   52.1700   82.2490   24.2220 C   0  0  0  0  0  0  0  0  0  0  0  0
   52.9380   83.3270   24.6320 C   0  0  0  0  0  0  0  0  0  0  0  0
   53.9800   83.1220   25.5540 C   0  0  0  0  0  0  0  0  0  0  0  0
   54.8900   84.0210   26.1410 C   0  0  0  0  0  0  0  0  0  0  0  0
   55.7000   83.2880   26.9620 C   0  0  0  0  0  0  0  0  0  0  0  0
   55.3590   81.9450   26.9030 N   0  0  0  0  0  0  0  0  0  0  0  0
   54.2490   81.8340   26.0580 C   0  0  0  0  0  0  0  0  0  0  0  0
   60.5978   84.4711   33.8439 H   0  0  0  0  0  0  0  0  0  0  0  0
   61.4062   83.2977   32.7501 H   0  0  0  0  0  0  0  0  0  0  0  0
   61.9122   85.0213   32.7501 H   0  0  0  0  0  0  0  0  0  0  0  0
   57.2640   83.7490   30.8780 H   0  0  0  0  0  0  0  0  0  0  0  0
   58.2080   85.0700   30.4060 H   0  0  0  0  0  0  0  0  0  0  0  0
   59.9457   81.6932   30.3594 H   0  0  0  0  0  0  0  0  0  0  0  0
   60.6425   80.8257   31.7964 H   0  0  0  0  0  0  0  0  0  0  0  0
   59.3061   79.0552   31.5094 H   0  0  0  0  0  0  0  0  0  0  0  0
   57.8529   80.0978   31.2633 H   0  0  0  0  0  0  0  0  0  0  0  0
   59.7049   80.2596   28.9966 H   0  0  0  0  0  0  0  0  0  0  0  0
   59.1610   78.5589   29.3285 H   0  0  0  0  0  0  0  0  0  0  0  0
   55.0194   77.3756   29.6100 H   0  0  0  0  0  0  0  0  0  0  0  0
   54.0296   75.0962   29.8823 H   0  0  0  0  0  0  0  0  0  0  0  0
   52.5450   74.1489   28.1369 H   0  0  0  0  0  0  0  0  0  0  0  0
   51.9548   75.5024   26.1215 H   0  0  0  0  0  0  0  0  0  0  0  0
   52.3577   78.1476   24.8840 H   0  0  0  0  0  0  0  0  0  0  0  0
   51.8037   80.1447   24.4026 H   0  0  0  0  0  0  0  0  0  0  0  0
   51.3569   82.3940   23.4954 H   0  0  0  0  0  0  0  0  0  0  0  0
   52.7345   84.3343   24.2398 H   0  0  0  0  0  0  0  0  0  0  0  0
   54.9397   85.1067   25.9713 H   0  0  0  0  0  0  0  0  0  0  0  0
   56.5079   83.7042   27.5818 H   0  0  0  0  0  0  0  0  0  0  0  0
  1  2  1  0
  2  3  2  3
  3  4  1  0
  3  5  1  0
  5  6  1  0
  6  7  1  0
  7  8  1  0
  8  9  1  0
  9 10  1  0
 10 11  2  0
 10 12  1  0
 12 13  2  0
 13 14  1  0
 14 15  2  0
 13 16  1  0
 16 17  1  0
 17 18  2  0
 18 19  1  0
 19 20  2  0
 20 21  1  0
 21 22  2  0
 22 23  1  0
 23 24  2  0
 24 25  1  0
 25 26  2  0
 26 27  1  0
 27 28  2  0
 28 29  1  0
 29 30  1  0
 30 31  2  0
 31 32  1  0
 32 33  1  0
 14  9  1  0
 24 16  1  0
 33 25  1  0
 32 12  1  0
 22 17  1  0
 33 29  2  0
  1 34  1  0
  1 35  1  0
  1 36  1  0
  4 37  1  0
  4 38  1  0
  6 39  1  0
  6 40  1  0
  7 41  1  0
  7 42  1  0
  8 43  1  0
  8 44  1  0
 18 45  1  0
 19 46  1  0
 20 47  1  0
 21 48  1  0
 23 49  1  0
 26 50  1  0
 27 51  1  0
 28 52  1  0
 30 53  1  0
 31 54  1  0
M  END
>  <meeko>  (1) 
{"is_sidechain": false}

>  <smiles>  (1) 
CN=C(N)SCCCn1c(=O)c2c(c1=O)n1c3ccccc3cc1c1cccc3ccn2c31

>  <vina_score>  (1) 
-8.364

>  <job_id>  (1) 
22eda1734258677d

$$$$
