
     RDKit          3D

 54 55  0  0  0  0  0  0  0  0999 V2000
   51.4620   81.1220   24.5560 C   0  0  0  0  0  0  0  0  0  0  0  0
   52.9370   80.8930   24.3390 C   0  0  0  0  0  0  0  0  0  0  0  0
   53.3100   79.8770   23.6300 N   0  0  0  0  0  0  0  0  0  0  0  0
   53.9560   81.8440   24.9580 C   0  0  1  0  0  0  0  0  0  0  0  0
   53.3090   83.2130   25.1770 C   0  0  0  0  0  0  0  0  0  0  0  0
   54.5650   81.2730   26.2580 C   0  0  1  0  0  0  0  0  0  0  0  0
   53.6850   81.5950   27.4690 C   0  0  0  0  0  0  0  0  0  0  0  0
   54.6250   79.8430   26.1050 O   0  0  0  0  0  0  0  0  0  0  0  0
   55.1130   79.1300   27.1800 C   0  0  0  0  0  0  0  0  0  0  0  0
   56.3460   79.4040   27.6450 N   0  0  0  0  0  0  0  0  0  0  0  0
   56.7810   78.7010   28.7000 C   0  0  0  0  0  0  0  0  0  0  0  0
   58.0630   79.0240   29.1370 N   0  0  0  0  0  0  0  0  0  0  0  0
   58.6000   80.0930   29.8630 C   0  0  0  0  0  0  0  0  0  0  0  0
   59.4640   81.0510   29.3200 C   0  0  0  0  0  0  0  0  0  0  0  0
   59.9480   82.1150   30.0890 C   0  0  0  0  0  0  0  0  0  0  0  0
   59.5440   82.2430   31.4170 C   0  0  0  0  0  0  0  0  0  0  0  0
   60.1490   83.6030   32.3960 S   0  0  0  0  0  0  0  0  0  0  0  0
   59.0700   84.5670   32.4940 O   0  0  0  0  0  0  0  0  0  0  0  0
   61.4320   83.9820   31.8320 O   0  0  0  0  0  0  0  0  0  0  0  0
   60.4300   82.8190   34.0190 C   0  0  1  0  0  0  0  0  0  0  0  0
   61.7580   82.0750   34.0030 C   0  0  0  0  0  0  0  0  0  0  0  0
   60.4350   83.6920   35.1680 O   0  0  0  0  0  0  0  0  0  0  0  0
   58.6920   81.3020   31.9900 C   0  0  0  0  0  0  0  0  0  0  0  0
   58.2210   80.2410   31.2100 C   0  0  0  0  0  0  0  0  0  0  0  0
   56.0490   77.7460   29.2860 N   0  0  0  0  0  0  0  0  0  0  0  0
   54.8200   77.5040   28.7890 C   0  0  0  0  0  0  0  0  0  0  0  0
   54.2890   78.1770   27.7190 C   0  0  0  0  0  0  0  0  0  0  0  0
   52.9350   77.8940   27.1900 C   0  0  0  0  0  0  0  0  0  0  0  0
   52.2010   77.0930   28.0160 F   0  0  0  0  0  0  0  0  0  0  0  0
   52.1820   79.0120   27.0110 F   0  0  0  0  0  0  0  0  0  0  0  0
   52.9530   77.2500   25.9900 F   0  0  0  0  0  0  0  0  0  0  0  0
   51.2509   81.1548   25.6351 H   0  0  0  0  0  0  0  0  0  0  0  0
   51.1675   82.0766   24.0956 H   0  0  0  0  0  0  0  0  0  0  0  0
   50.8919   80.3016   24.0956 H   0  0  0  0  0  0  0  0  0  0  0  0
   54.3310   79.8260   23.5490 H   0  0  0  0  0  0  0  0  0  0  0  0
   54.7973   81.9627   24.2593 H   0  0  0  0  0  0  0  0  0  0  0  0
   53.2174   83.4069   26.2559 H   0  0  0  0  0  0  0  0  0  0  0  0
   53.9342   83.9920   24.7163 H   0  0  0  0  0  0  0  0  0  0  0  0
   52.3102   83.2244   24.7163 H   0  0  0  0  0  0  0  0  0  0  0  0
   55.5578   81.7159   26.4260 H   0  0  0  0  0  0  0  0  0  0  0  0
   54.2445   81.3903   28.3937 H   0  0  0  0  0  0  0  0  0  0  0  0
   53.3978   82.6565   27.4417 H   0  0  0  0  0  0  0  0  0  0  0  0
   52.7805   80.9696   27.4417 H   0  0  0  0  0  0  0  0  0  0  0  0
   58.7200   78.3720   28.7350 H   0  0  0  0  0  0  0  0  0  0  0  0
   59.7689   80.9656   28.2666 H   0  0  0  0  0  0  0  0  0  0  0  0
   60.6426   82.8455   29.6486 H   0  0  0  0  0  0  0  0  0  0  0  0
   59.5585   82.1597   34.1445 H   0  0  0  0  0  0  0  0  0  0  0  0
   62.0874   81.8905   35.0362 H   0  0  0  0  0  0  0  0  0  0  0  0
   61.6341   81.1149   33.4806 H   0  0  0  0  0  0  0  0  0  0  0  0
   62.5121   82.6820   33.4806 H   0  0  0  0  0  0  0  0  0  0  0  0
   61.1500   84.3410   35.0470 H   0  0  0  0  0  0  0  0  0  0  0  0
   58.3928   81.3923   33.0447 H   0  0  0  0  0  0  0  0  0  0  0  0
   57.5384   79.5051   31.6600 H   0  0  0  0  0  0  0  0  0  0  0  0
   54.2097   76.7241   29.2678 H   0  0  0  0  0  0  0  0  0  0  0  0
  1  2  1  0
  2  3  2  3
  2  4  1  0
  4  5  1  0
  4  6  1  0
  6  7  1  0
  6  8  1  0
  8  9  1  0
  9 10  2  0
 10 11  1  0
 11 12  1  0
 12 13  1  0
 13 14  1  0
 14 15  2  0
 15 16  1  0
 16 17  1  0
 17 18  2  0
 17 19  2  0
 17 20  1  0
 20 21  1  0
 20 22  1  0
 16 23  2  0
 23 24  1  0
 11 25  2  0
 25 26  1  0
 26 27  2  0
 27 28  1  0
 28 29  1  0
 28 30  1  0
 28 31  1  0
 27  9  1  0
 24 13  2  0
  1 32  1  0
  1 33  1  0
  1 34  1  0
  3 35  1  0
  4 36  1  6
  5 37  1  0
  5 38  1  0
  5 39  1  0
  6 40  1  1
  7 41  1  0
  7 42  1  0
  7 43  1  0
 12 44  1  0
 14 45  1  0
 15 46  1  0
 20 47  1  1
 21 48  1  0
 21 49  1  0
 21 50  1  0
 22 51  1  0
 23 52  1  0
 24 53  1  0
 26 54  1  0
M  END
>  <meeko>  (1) 
{"is_sidechain": false}

>  <smiles>  (1) 
CC(=N)[C@@H](C)[C@@H](C)Oc1nc(Nc2ccc(S(=O)(=O)[C@@H](C)O)cc2)ncc1C(F)(F)F

>  <vina_score>  (1) 
-8.170

>  <job_id>  (1) 
22f34904a3ebcd2f

$$$$
