
     RDKit          3D

 36 37  0  0  0  0  0  0  0  0999 V2000
   59.6810   82.2520   33.6070 C   0  0  0  0  0  0  0  0  0  0  0  0
   59.7760   82.7510   32.2790 O   0  0  0  0  0  0  0  0  0  0  0  0
   59.4160   81.8960   31.2720 C   0  0  0  0  0  0  0  0  0  0  0  0
   58.6420   80.8080   31.6790 C   0  0  0  0  0  0  0  0  0  0  0  0
   58.2050   79.8560   30.7550 C   0  0  0  0  0  0  0  0  0  0  0  0
   58.5320   79.9850   29.4000 C   0  0  0  0  0  0  0  0  0  0  0  0
   58.0630   78.9610   28.3940 C   0  0  0  0  0  0  0  0  0  0  0  0
   56.5730   78.6600   28.4540 C   0  0  0  0  0  0  0  0  0  0  0  0
   56.0750   77.8490   29.2330 O   0  0  0  0  0  0  0  0  0  0  0  0
   55.6620   79.3950   27.5180 C   0  0  0  0  0  0  0  0  0  0  0  0
   56.0750   80.5260   26.8000 C   0  0  0  0  0  0  0  0  0  0  0  0
   55.1830   81.1770   25.9400 C   0  0  0  0  0  0  0  0  0  0  0  0
   53.8760   80.7010   25.8040 C   0  0  0  0  0  0  0  0  0  0  0  0
   52.7570   81.5200   24.6970 S   0  0  0  0  0  0  0  0  0  0  0  0
   53.3090   80.9800   23.2010 N   0  0  0  0  0  0  0  0  0  0  0  0
   51.4350   80.9810   24.9060 O   0  0  0  0  0  0  0  0  0  0  0  0
   53.0370   82.9370   24.7320 O   0  0  0  0  0  0  0  0  0  0  0  0
   53.4550   79.5700   26.5040 C   0  0  0  0  0  0  0  0  0  0  0  0
   54.3480   78.9250   27.3640 C   0  0  0  0  0  0  0  0  0  0  0  0
   59.3150   81.0740   28.9960 C   0  0  0  0  0  0  0  0  0  0  0  0
   59.7530   82.0250   29.9250 C   0  0  0  0  0  0  0  0  0  0  0  0
   59.8377   83.0749   34.3200 H   0  0  0  0  0  0  0  0  0  0  0  0
   58.6836   81.8155   33.7642 H   0  0  0  0  0  0  0  0  0  0  0  0
   60.4482   81.4796   33.7642 H   0  0  0  0  0  0  0  0  0  0  0  0
   58.3730   80.6990   32.7400 H   0  0  0  0  0  0  0  0  0  0  0  0
   57.6012   79.0011   31.0936 H   0  0  0  0  0  0  0  0  0  0  0  0
   58.2985   79.3350   27.3867 H   0  0  0  0  0  0  0  0  0  0  0  0
   58.5835   78.0223   28.6345 H   0  0  0  0  0  0  0  0  0  0  0  0
   57.1023   80.9027   26.9127 H   0  0  0  0  0  0  0  0  0  0  0  0
   55.5098   82.0609   25.3727 H   0  0  0  0  0  0  0  0  0  0  0  0
   53.9150   80.1710   23.3450 H   0  0  0  0  0  0  0  0  0  0  0  0
   52.5630   80.7840   22.5350 H   0  0  0  0  0  0  0  0  0  0  0  0
   52.4303   79.1897   26.3802 H   0  0  0  0  0  0  0  0  0  0  0  0
   54.0177   78.0393   27.9265 H   0  0  0  0  0  0  0  0  0  0  0  0
   59.5889   81.1831   27.9362 H   0  0  0  0  0  0  0  0  0  0  0  0
   60.3646   82.8763   29.5917 H   0  0  0  0  0  0  0  0  0  0  0  0
  1  2  1  0
  2  3  1  0
  3  4  1  0
  4  5  2  0
  5  6  1  0
  6  7  1  0
  7  8  1  0
  8  9  2  0
  8 10  1  0
 10 11  1  0
 11 12  2  0
 12 13  1  0
 13 14  1  0
 14 15  1  0
 14 16  2  0
 14 17  2  0
 13 18  2  0
 18 19  1  0
  6 20  2  0
 20 21  1  0
 21  3  2  0
 19 10  2  0
  1 22  1  0
  1 23  1  0
  1 24  1  0
  4 25  1  0
  5 26  1  0
  7 27  1  0
  7 28  1  0
 11 29  1  0
 12 30  1  0
 15 31  1  0
 15 32  1  0
 18 33  1  0
 19 34  1  0
 20 35  1  0
 21 36  1  0
M  END
>  <meeko>  (1) 
{"is_sidechain": false}

>  <smiles>  (1) 
COc1ccc(CC(=O)c2ccc(S(N)(=O)=O)cc2)cc1

>  <vina_score>  (1) 
-7.841

>  <job_id>  (1) 
22f63ce25727cef3

$$$$
