
     RDKit          3D

 60 65  0  0  0  0  0  0  0  0999 V2000
   56.3080   82.1170   26.1420 C   0  0  0  0  0  0  0  0  0  0  0  0
   55.8800   80.8540   26.8680 C   0  0  0  0  0  0  0  0  0  0  0  0
   54.8450   80.1370   26.5300 N   0  0  0  0  0  0  0  0  0  0  0  0
   54.0360   80.5240   25.4570 C   0  0  0  0  0  0  0  0  0  0  0  0
   53.7180   79.6130   24.4430 C   0  0  0  0  0  0  0  0  0  0  0  0
   52.9350   80.0070   23.3580 C   0  0  0  0  0  0  0  0  0  0  0  0
   52.4880   81.3300   23.2800 C   0  0  0  0  0  0  0  0  0  0  0  0
   51.4960   81.8290   21.8990 S   0  0  0  0  0  0  0  0  0  0  0  0
   49.9590   81.3570   22.4010 N   0  0  0  0  0  0  0  0  0  0  0  0
   51.5190   83.2700   21.8170 O   0  0  0  0  0  0  0  0  0  0  0  0
   51.8140   80.9810   20.7720 O   0  0  0  0  0  0  0  0  0  0  0  0
   52.8030   82.2530   24.2810 C   0  0  0  0  0  0  0  0  0  0  0  0
   53.5870   81.8450   25.3620 C   0  0  0  0  0  0  0  0  0  0  0  0
   56.6900   80.4150   28.0480 C   0  0  0  0  0  0  0  0  0  0  0  0
   56.7090   79.0570   28.3870 C   0  0  0  0  0  0  0  0  0  0  0  0
   57.4400   78.5910   29.4850 C   0  0  0  0  0  0  0  0  0  0  0  0
   58.1500   79.5340   30.2340 C   0  0  0  0  0  0  0  0  0  0  0  0
   58.9350   79.3720   31.3510 N   0  0  0  0  0  0  0  0  0  0  0  0
   59.4450   80.5730   31.7570 C   0  0  0  0  0  0  0  0  0  0  0  0
   60.4810   80.6000   33.1480 S   0  0  0  0  0  0  0  0  0  0  0  0
   59.4760   81.4090   34.2000 O   0  0  0  0  0  0  0  0  0  0  0  0
   58.9680   81.5540   30.9120 C   0  0  0  0  0  0  0  0  0  0  0  0
   59.2930   82.9650   31.0210 C   0  0  0  0  0  0  0  0  0  0  0  0
   58.2790   83.8920   31.2750 C   0  0  0  0  0  0  0  0  0  0  0  0
   58.5600   85.2570   31.4000 C   0  0  0  0  0  0  0  0  0  0  0  0
   59.8930   85.6590   31.2670 C   0  0  0  0  0  0  0  0  0  0  0  0
   60.4490   86.9120   31.3360 N   0  0  0  0  0  0  0  0  0  0  0  0
   61.8070   86.8570   31.1750 C   0  0  0  0  0  0  0  0  0  0  0  0
   62.4900   87.9900   31.2810 O   0  0  0  0  0  0  0  0  0  0  0  0
   62.1410   85.5370   30.9410 C   0  0  0  0  0  0  0  0  0  0  0  0
   63.5540   84.9520   30.6380 C   0  0  0  0  0  0  0  0  0  0  0  0
   63.9690   83.6370   30.6010 C   0  0  0  0  0  0  0  0  0  0  0  0
   65.3060   83.5570   30.2930 N   0  0  0  0  0  0  0  0  0  0  0  0
   65.6600   84.8150   30.1710 C   0  0  0  0  0  0  0  0  0  0  0  0
   64.6650   85.7170   30.3680 O   0  0  0  0  0  0  0  0  0  0  0  0
   60.9360   84.7660   31.0200 C   0  0  0  0  0  0  0  0  0  0  0  0
   60.6250   83.3940   30.8960 C   0  0  0  0  0  0  0  0  0  0  0  0
   58.1510   80.8980   29.9330 C   0  0  0  0  0  0  0  0  0  0  0  0
   57.3990   81.3460   28.8240 C   0  0  0  0  0  0  0  0  0  0  0  0
   56.5705   82.8916   26.8775 H   0  0  0  0  0  0  0  0  0  0  0  0
   57.1824   81.8989   25.5113 H   0  0  0  0  0  0  0  0  0  0  0  0
   55.4811   82.4754   25.5113 H   0  0  0  0  0  0  0  0  0  0  0  0
   54.0883   78.5789   24.5022 H   0  0  0  0  0  0  0  0  0  0  0  0
   52.6717   79.2844   22.5715 H   0  0  0  0  0  0  0  0  0  0  0  0
   49.8360   80.3450   22.4260 H   0  0  0  0  0  0  0  0  0  0  0  0
   49.2640   81.8110   21.8050 H   0  0  0  0  0  0  0  0  0  0  0  0
   52.4376   83.2886   24.2180 H   0  0  0  0  0  0  0  0  0  0  0  0
   53.8538   82.5691   26.1459 H   0  0  0  0  0  0  0  0  0  0  0  0
   56.1374   78.3416   27.7775 H   0  0  0  0  0  0  0  0  0  0  0  0
   57.4555   77.5233   29.7490 H   0  0  0  0  0  0  0  0  0  0  0  0
   59.1320   78.4980   31.8180 H   0  0  0  0  0  0  0  0  0  0  0  0
   59.8880   81.4320   35.0980 H   0  0  0  0  0  0  0  0  0  0  0  0
   57.2412   83.5425   31.3786 H   0  0  0  0  0  0  0  0  0  0  0  0
   57.7613   85.9876   31.5958 H   0  0  0  0  0  0  0  0  0  0  0  0
   59.9400   87.7660   31.5100 H   0  0  0  0  0  0  0  0  0  0  0  0
   62.0830   88.6500   30.6980 H   0  0  0  0  0  0  0  0  0  0  0  0
   63.3186   82.7707   30.7919 H   0  0  0  0  0  0  0  0  0  0  0  0
   66.6892   85.1167   29.9266 H   0  0  0  0  0  0  0  0  0  0  0  0
   61.4237   82.6630   30.7020 H   0  0  0  0  0  0  0  0  0  0  0  0
   57.3692   82.4160   28.5704 H   0  0  0  0  0  0  0  0  0  0  0  0
  1  2  1  0
  2  3  2  3
  3  4  1  0
  4  5  1  0
  5  6  2  0
  6  7  1  0
  7  8  1  0
  8  9  1  0
  8 10  2  0
  8 11  2  0
  7 12  2  0
 12 13  1  0
  2 14  1  0
 14 15  2  0
 15 16  1  0
 16 17  2  0
 17 18  1  0
 18 19  1  0
 19 20  1  0
 20 21  1  0
 19 22  2  0
 22 23  1  0
 23 24  2  0
 24 25  1  0
 25 26  2  0
 26 27  1  0
 27 28  1  0
 28 29  1  0
 28 30  2  0
 30 31  1  0
 31 32  2  0
 32 33  1  0
 33 34  2  0
 34 35  1  0
 30 36  1  0
 36 37  2  0
 22 38  1  0
 38 39  2  0
 13  4  2  0
 39 14  1  0
 38 17  1  0
 37 23  1  0
 36 26  1  0
 35 31  1  0
  1 40  1  0
  1 41  1  0
  1 42  1  0
  5 43  1  0
  6 44  1  0
  9 45  1  0
  9 46  1  0
 12 47  1  0
 13 48  1  0
 15 49  1  0
 16 50  1  0
 18 51  1  0
 21 52  1  0
 24 53  1  0
 25 54  1  0
 27 55  1  0
 29 56  1  0
 32 57  1  0
 34 58  1  0
 37 59  1  0
 39 60  1  0
M  END
>  <meeko>  (1) 
{"is_sidechain": false}

>  <smiles>  (1) 
CC(=Nc1ccc(S(N)(=O)=O)cc1)c1ccc2[nH]c(SO)c(-c3ccc4[nH]c(O)c(-c5cnco5)c4c3)c2c1

>  <vina_score>  (1) 
-7.479

>  <job_id>  (1) 
230cabb1b81ef370

$$$$
