
     RDKit          3D

 44 46  0  0  0  0  0  0  0  0999 V2000
   60.5040   80.8070   35.1430 C   0  0  0  0  0  0  0  0  0  0  0  0
   60.3770   80.6780   33.7130 N   0  0  0  0  0  0  0  0  0  0  0  0
   59.1810   80.9730   33.0900 C   0  0  0  0  0  0  0  0  0  0  0  0
   58.1620   81.2870   33.6960 O   0  0  0  0  0  0  0  0  0  0  0  0
   59.1870   80.9370   31.6020 C   0  0  0  0  0  0  0  0  0  0  0  0
   59.7550   82.0130   30.9140 C   0  0  0  0  0  0  0  0  0  0  0  0
   59.7760   82.0130   29.5220 C   0  0  0  0  0  0  0  0  0  0  0  0
   59.2190   80.9440   28.8160 C   0  0  0  0  0  0  0  0  0  0  0  0
   58.6310   79.8610   29.4830 C   0  0  0  0  0  0  0  0  0  0  0  0
   58.0150   78.7970   28.8030 N   0  0  0  0  0  0  0  0  0  0  0  0
   56.6650   78.4090   28.6910 C   0  0  0  0  0  0  0  0  0  0  0  0
   56.0420   77.5590   29.6030 C   0  0  0  0  0  0  0  0  0  0  0  0
   54.6970   77.2340   29.4550 C   0  0  0  0  0  0  0  0  0  0  0  0
   53.9550   77.7690   28.3980 C   0  0  0  0  0  0  0  0  0  0  0  0
   54.5270   78.6440   27.4630 C   0  0  0  0  0  0  0  0  0  0  0  0
   53.7950   79.1800   26.4180 N   0  0  0  0  0  0  0  0  0  0  0  0
   53.3700   78.3630   25.2700 C   0  0  0  0  0  0  0  0  0  0  0  0
   53.3010   79.2260   23.9980 C   0  0  0  0  0  0  0  0  0  0  0  0
   52.4050   80.3410   24.0950 O   0  0  0  0  0  0  0  0  0  0  0  0
   52.2860   80.8580   25.4290 C   0  0  0  0  0  0  0  0  0  0  0  0
   53.5260   80.6220   26.3080 C   0  0  0  0  0  0  0  0  0  0  0  0
   55.8910   78.9420   27.6420 C   0  0  0  0  0  0  0  0  0  0  0  0
   58.6170   79.8740   30.8870 C   0  0  0  0  0  0  0  0  0  0  0  0
   59.8145   80.1066   35.6370 H   0  0  0  0  0  0  0  0  0  0  0  0
   61.5372   80.5763   35.4416 H   0  0  0  0  0  0  0  0  0  0  0  0
   60.2572   81.8365   35.4416 H   0  0  0  0  0  0  0  0  0  0  0  0
   61.2250   80.7010   33.1630 H   0  0  0  0  0  0  0  0  0  0  0  0
   60.1847   82.8583   31.4715 H   0  0  0  0  0  0  0  0  0  0  0  0
   60.2309   82.8542   28.9784 H   0  0  0  0  0  0  0  0  0  0  0  0
   59.2424   80.9526   27.7163 H   0  0  0  0  0  0  0  0  0  0  0  0
   58.6570   78.1380   28.3770 H   0  0  0  0  0  0  0  0  0  0  0  0
   56.6163   77.1430   30.4439 H   0  0  0  0  0  0  0  0  0  0  0  0
   54.2158   76.5533   30.1727 H   0  0  0  0  0  0  0  0  0  0  0  0
   52.8941   77.4964   28.2969 H   0  0  0  0  0  0  0  0  0  0  0  0
   54.0928   77.5480   25.1170 H   0  0  0  0  0  0  0  0  0  0  0  0
   52.3724   77.9477   25.4757 H   0  0  0  0  0  0  0  0  0  0  0  0
   54.3096   79.6107   23.7864 H   0  0  0  0  0  0  0  0  0  0  0  0
   52.9163   78.5788   23.1961 H   0  0  0  0  0  0  0  0  0  0  0  0
   52.1096   81.9419   25.3648 H   0  0  0  0  0  0  0  0  0  0  0  0
   51.4534   80.3189   25.9045 H   0  0  0  0  0  0  0  0  0  0  0  0
   54.3949   81.1215   25.8546 H   0  0  0  0  0  0  0  0  0  0  0  0
   53.3421   81.0335   27.3114 H   0  0  0  0  0  0  0  0  0  0  0  0
   56.3758   79.6241   26.9281 H   0  0  0  0  0  0  0  0  0  0  0  0
   58.1529   79.0395   31.4330 H   0  0  0  0  0  0  0  0  0  0  0  0
  1  2  1  0
  2  3  1  0
  3  4  2  0
  3  5  1  0
  5  6  1  0
  6  7  2  0
  7  8  1  0
  8  9  2  0
  9 10  1  0
 10 11  1  0
 11 12  1  0
 12 13  2  0
 13 14  1  0
 14 15  2  0
 15 16  1  0
 16 17  1  0
 17 18  1  0
 18 19  1  0
 19 20  1  0
 20 21  1  0
 15 22  1  0
  9 23  1  0
 23  5  2  0
 22 11  2  0
 21 16  1  0
  1 24  1  0
  1 25  1  0
  1 26  1  0
  2 27  1  0
  6 28  1  0
  7 29  1  0
  8 30  1  0
 10 31  1  0
 12 32  1  0
 13 33  1  0
 14 34  1  0
 17 35  1  0
 17 36  1  0
 18 37  1  0
 18 38  1  0
 20 39  1  0
 20 40  1  0
 21 41  1  0
 21 42  1  0
 22 43  1  0
 23 44  1  0
M  END
>  <meeko>  (1) 
{"is_sidechain": false}

>  <smiles>  (1) 
CNC(=O)c1cccc(Nc2cccc(N3CCOCC3)c2)c1

>  <vina_score>  (1) 
-8.543

>  <job_id>  (1) 
2338ad62b21a018d

$$$$
