
     RDKit          3D

 42 45  0  0  0  0  0  0  0  0999 V2000
   56.4320   81.4200   26.8470 C   0  0  0  0  0  0  0  0  0  0  0  0
   55.2050   80.7970   26.4100 N   0  0  0  0  0  0  0  0  0  0  0  0
   54.5050   81.3610   25.3960 N   0  0  0  0  0  0  0  0  0  0  0  0
   53.4350   80.5510   25.2300 C   0  0  0  0  0  0  0  0  0  0  0  0
   52.4020   80.8340   24.2230 C   0  0  0  0  0  0  0  0  0  0  0  0
   52.8800   80.9290   22.9470 N   0  0  0  0  0  0  0  0  0  0  0  0
   51.2110   80.9810   24.4780 O   0  0  0  0  0  0  0  0  0  0  0  0
   53.4840   79.4690   26.1420 C   0  0  0  0  0  0  0  0  0  0  0  0
   54.6310   79.6570   26.8880 C   0  0  0  0  0  0  0  0  0  0  0  0
   55.0530   78.7570   27.9430 C   0  0  0  0  0  0  0  0  0  0  0  0
   56.0540   79.1510   28.7460 N   0  0  0  0  0  0  0  0  0  0  0  0
   56.4000   78.3010   29.7260 C   0  0  0  0  0  0  0  0  0  0  0  0
   57.4360   78.7460   30.5430 N   0  0  0  0  0  0  0  0  0  0  0  0
   58.2840   79.8570   30.5240 C   0  0  0  0  0  0  0  0  0  0  0  0
   59.0340   80.2520   29.4130 C   0  0  0  0  0  0  0  0  0  0  0  0
   59.8640   81.3810   29.4620 C   0  0  0  0  0  0  0  0  0  0  0  0
   59.9370   82.1700   30.6070 C   0  0  0  0  0  0  0  0  0  0  0  0
   60.8540   83.2230   30.6860 N   0  0  0  0  0  0  0  0  0  0  0  0
   59.2440   81.7510   31.7400 C   0  0  0  0  0  0  0  0  0  0  0  0
   58.4130   80.6240   31.6930 C   0  0  0  0  0  0  0  0  0  0  0  0
   55.8080   77.1100   29.9160 N   0  0  0  0  0  0  0  0  0  0  0  0
   54.8100   76.7580   29.0820 C   0  0  0  0  0  0  0  0  0  0  0  0
   54.3660   77.5600   28.0640 C   0  0  0  0  0  0  0  0  0  0  0  0
   53.2980   77.1480   27.0800 C   0  0  0  0  0  0  0  0  0  0  0  0
   52.5590   78.3280   26.3990 C   0  0  0  0  0  0  0  0  0  0  0  0
   56.4637   81.4361   27.9464 H   0  0  0  0  0  0  0  0  0  0  0  0
   57.2902   80.8484   26.4638 H   0  0  0  0  0  0  0  0  0  0  0  0
   56.4769   82.4501   26.4638 H   0  0  0  0  0  0  0  0  0  0  0  0
   52.2550   81.1570   22.1900 H   0  0  0  0  0  0  0  0  0  0  0  0
   53.8790   80.8340   22.8000 H   0  0  0  0  0  0  0  0  0  0  0  0
   57.5620   78.0930   31.3010 H   0  0  0  0  0  0  0  0  0  0  0  0
   58.9721   79.6669   28.4836 H   0  0  0  0  0  0  0  0  0  0  0  0
   60.4672   81.6477   28.5817 H   0  0  0  0  0  0  0  0  0  0  0  0
   60.4400   84.1390   30.5450 H   0  0  0  0  0  0  0  0  0  0  0  0
   61.6850   83.0840   30.1200 H   0  0  0  0  0  0  0  0  0  0  0  0
   59.3501   82.3104   32.6811 H   0  0  0  0  0  0  0  0  0  0  0  0
   57.8492   80.3336   32.5918 H   0  0  0  0  0  0  0  0  0  0  0  0
   54.3285   75.7794   29.2255 H   0  0  0  0  0  0  0  0  0  0  0  0
   53.7710   76.5402   26.2946 H   0  0  0  0  0  0  0  0  0  0  0  0
   52.5403   76.5956   27.6551 H   0  0  0  0  0  0  0  0  0  0  0  0
   52.1395   77.9840   25.4421 H   0  0  0  0  0  0  0  0  0  0  0  0
   51.7601   78.6728   27.0719 H   0  0  0  0  0  0  0  0  0  0  0  0
  1  2  1  0
  2  3  1  0
  3  4  2  0
  4  5  1  0
  5  6  1  0
  5  7  2  0
  4  8  1  0
  8  9  2  0
  9 10  1  0
 10 11  2  0
 11 12  1  0
 12 13  1  0
 13 14  1  0
 14 15  1  0
 15 16  2  0
 16 17  1  0
 17 18  1  0
 17 19  2  0
 19 20  1  0
 12 21  2  0
 21 22  1  0
 22 23  2  0
 23 24  1  0
 24 25  1  0
  9  2  1  0
 23 10  1  0
 25  8  1  0
 20 14  2  0
  1 26  1  0
  1 27  1  0
  1 28  1  0
  6 29  1  0
  6 30  1  0
 13 31  1  0
 15 32  1  0
 16 33  1  0
 18 34  1  0
 18 35  1  0
 19 36  1  0
 20 37  1  0
 22 38  1  0
 24 39  1  0
 24 40  1  0
 25 41  1  0
 25 42  1  0
M  END
>  <meeko>  (1) 
{"is_sidechain": false}

>  <smiles>  (1) 
Cn1nc(C(N)=O)c2c1-c1nc(Nc3ccc(N)cc3)ncc1CC2

>  <vina_score>  (1) 
-8.307

>  <job_id>  (1) 
234166973a2c53a0

$$$$
