
     RDKit          3D

 40 42  0  0  0  0  0  0  0  0999 V2000
   61.3910   82.6970   30.2700 N   0  0  0  0  0  0  0  0  0  0  0  0
   60.3020   82.0010   30.8100 C   0  0  0  0  0  0  0  0  0  0  0  0
   59.7790   82.3650   32.0230 C   0  0  0  0  0  0  0  0  0  0  0  0
   58.7220   81.6080   32.4370 C   0  0  0  0  0  0  0  0  0  0  0  0
   58.1210   81.8740   33.6260 O   0  0  0  0  0  0  0  0  0  0  0  0
   58.1890   80.5830   31.7700 N   0  0  0  0  0  0  0  0  0  0  0  0
   58.7640   80.2990   30.5920 C   0  0  0  0  0  0  0  0  0  0  0  0
   58.1950   79.2260   29.9070 N   0  0  0  0  0  0  0  0  0  0  0  0
   57.0950   79.0960   29.0530 C   0  0  0  0  0  0  0  0  0  0  0  0
   56.0180   78.2400   29.2900 C   0  0  0  0  0  0  0  0  0  0  0  0
   54.9450   78.1540   28.3920 C   0  0  0  0  0  0  0  0  0  0  0  0
   54.9220   78.9290   27.2290 C   0  0  0  0  0  0  0  0  0  0  0  0
   53.7530   78.8010   26.3040 C   0  0  0  0  0  0  0  0  0  0  0  0
   53.7960   77.9640   25.4040 O   0  0  0  0  0  0  0  0  0  0  0  0
   52.5590   79.7170   26.5200 C   0  0  0  0  0  0  0  0  0  0  0  0
   52.7170   81.0630   25.8660 C   0  0  0  0  0  0  0  0  0  0  0  0
   53.0660   82.1890   26.6110 C   0  0  0  0  0  0  0  0  0  0  0  0
   53.3100   82.0680   27.9240 F   0  0  0  0  0  0  0  0  0  0  0  0
   53.1800   83.4460   26.0200 C   0  0  0  0  0  0  0  0  0  0  0  0
   52.9350   83.5950   24.6550 C   0  0  0  0  0  0  0  0  0  0  0  0
   52.5770   82.4820   23.8950 C   0  0  0  0  0  0  0  0  0  0  0  0
   52.4680   81.2330   24.5030 C   0  0  0  0  0  0  0  0  0  0  0  0
   52.1270   80.1760   23.7520 F   0  0  0  0  0  0  0  0  0  0  0  0
   55.9930   79.7910   26.9760 C   0  0  0  0  0  0  0  0  0  0  0  0
   57.0620   79.8680   27.8800 C   0  0  0  0  0  0  0  0  0  0  0  0
   59.8060   80.9820   30.0980 N   0  0  0  0  0  0  0  0  0  0  0  0
   62.1670   82.0620   30.1130 H   0  0  0  0  0  0  0  0  0  0  0  0
   61.6990   83.4180   30.9180 H   0  0  0  0  0  0  0  0  0  0  0  0
   60.1793   83.2007   32.6157 H   0  0  0  0  0  0  0  0  0  0  0  0
   57.5050   82.5810   33.3650 H   0  0  0  0  0  0  0  0  0  0  0  0
   58.7270   78.3920   30.1020 H   0  0  0  0  0  0  0  0  0  0  0  0
   56.0112   77.6209   30.1992 H   0  0  0  0  0  0  0  0  0  0  0  0
   54.1114   77.4686   28.6051 H   0  0  0  0  0  0  0  0  0  0  0  0
   51.6649   79.2294   26.1043 H   0  0  0  0  0  0  0  0  0  0  0  0
   52.4711   79.8887   27.6030 H   0  0  0  0  0  0  0  0  0  0  0  0
   53.4623   84.3180   26.6282 H   0  0  0  0  0  0  0  0  0  0  0  0
   53.0236   84.5838   24.1812 H   0  0  0  0  0  0  0  0  0  0  0  0
   52.3811   82.5898   22.8180 H   0  0  0  0  0  0  0  0  0  0  0  0
   55.9971   80.4097   26.0665 H   0  0  0  0  0  0  0  0  0  0  0  0
   57.8970   80.5511   27.6649 H   0  0  0  0  0  0  0  0  0  0  0  0
  1  2  1  0
  2  3  1  0
  3  4  2  0
  4  5  1  0
  4  6  1  0
  6  7  2  0
  7  8  1  0
  8  9  1  0
  9 10  1  0
 10 11  2  0
 11 12  1  0
 12 13  1  0
 13 14  2  0
 13 15  1  0
 15 16  1  0
 16 17  2  0
 17 18  1  0
 17 19  1  0
 19 20  2  0
 20 21  1  0
 21 22  2  0
 22 23  1  0
 12 24  2  0
 24 25  1  0
  7 26  1  0
 26  2  2  0
 25  9  2  0
 22 16  1  0
  1 27  1  0
  1 28  1  0
  3 29  1  0
  5 30  1  0
  8 31  1  0
 10 32  1  0
 11 33  1  0
 15 34  1  0
 15 35  1  0
 19 36  1  0
 20 37  1  0
 21 38  1  0
 24 39  1  0
 25 40  1  0
M  END
>  <meeko>  (1) 
{"is_sidechain": false}

>  <smiles>  (1) 
Nc1cc(O)nc(Nc2ccc(C(=O)Cc3c(F)cccc3F)cc2)n1

>  <vina_score>  (1) 
-8.313

>  <job_id>  (1) 
234fa2c680f803d4

$$$$
