
     RDKit          3D

 53 56  0  0  0  0  0  0  0  0999 V2000
   51.4630   81.3570   23.7530 C   0  0  0  0  0  0  0  0  0  0  0  0
   52.9150   81.1910   23.7730 N   0  0  0  0  0  0  0  0  0  0  0  0
   53.5380   81.8910   24.9030 C   0  0  0  0  0  0  0  0  0  0  0  0
   53.3290   81.2030   26.2500 C   0  0  0  0  0  0  0  0  0  0  0  0
   53.7930   79.7460   26.1960 C   0  0  0  0  0  0  0  0  0  0  0  0
   53.4200   79.0540   27.3970 O   0  0  0  0  0  0  0  0  0  0  0  0
   54.3910   78.2590   27.9680 C   0  0  0  0  0  0  0  0  0  0  0  0
   55.6070   78.7840   28.2200 N   0  0  0  0  0  0  0  0  0  0  0  0
   56.5240   77.9840   28.7810 C   0  0  0  0  0  0  0  0  0  0  0  0
   57.7590   78.5800   29.0170 N   0  0  0  0  0  0  0  0  0  0  0  0
   58.1640   79.7780   29.6120 C   0  0  0  0  0  0  0  0  0  0  0  0
   58.1810   79.8570   31.0140 C   0  0  0  0  0  0  0  0  0  0  0  0
   58.5710   81.0260   31.6770 C   0  0  0  0  0  0  0  0  0  0  0  0
   58.9500   82.1520   30.9490 C   0  0  0  0  0  0  0  0  0  0  0  0
   59.4630   83.6710   31.7820 S   0  0  0  0  0  0  0  0  0  0  0  0
   58.6450   84.9210   31.0590 O   0  0  0  0  0  0  0  0  0  0  0  0
   61.1430   83.7150   31.0210 C   0  0  0  0  0  0  0  0  0  0  0  0
   62.2430   83.9630   32.0160 C   0  0  0  0  0  0  0  0  0  0  0  0
   62.0420   82.5870   31.4450 C   0  0  0  0  0  0  0  0  0  0  0  0
   58.9460   82.0900   29.5540 C   0  0  0  0  0  0  0  0  0  0  0  0
   58.5530   80.9160   28.8980 C   0  0  0  0  0  0  0  0  0  0  0  0
   56.2780   76.7040   29.0900 N   0  0  0  0  0  0  0  0  0  0  0  0
   55.0500   76.2200   28.8200 C   0  0  0  0  0  0  0  0  0  0  0  0
   54.0480   76.9630   28.2500 C   0  0  0  0  0  0  0  0  0  0  0  0
   52.7060   76.4080   27.9660 C   0  0  0  0  0  0  0  0  0  0  0  0
   52.5600   75.1240   28.4110 F   0  0  0  0  0  0  0  0  0  0  0  0
   51.6970   77.1060   28.5560 F   0  0  0  0  0  0  0  0  0  0  0  0
   52.4130   76.3600   26.6370 F   0  0  0  0  0  0  0  0  0  0  0  0
   53.1010   79.0290   25.0340 C   0  0  0  0  0  0  0  0  0  0  0  0
   53.3160   79.7800   23.7230 C   0  0  0  0  0  0  0  0  0  0  0  0
   51.0846   81.4003   24.7850 H   0  0  0  0  0  0  0  0  0  0  0  0
   51.2078   82.2902   23.2295 H   0  0  0  0  0  0  0  0  0  0  0  0
   51.0038   80.5055   23.2295 H   0  0  0  0  0  0  0  0  0  0  0  0
   54.6194   81.9599   24.7137 H   0  0  0  0  0  0  0  0  0  0  0  0
   53.0567   82.8778   24.9711 H   0  0  0  0  0  0  0  0  0  0  0  0
   53.9054   81.7364   27.0202 H   0  0  0  0  0  0  0  0  0  0  0  0
   52.2561   81.2217   26.4918 H   0  0  0  0  0  0  0  0  0  0  0  0
   54.8863   79.7441   26.0744 H   0  0  0  0  0  0  0  0  0  0  0  0
   58.4880   77.9850   28.6520 H   0  0  0  0  0  0  0  0  0  0  0  0
   57.8806   78.9792   31.6050 H   0  0  0  0  0  0  0  0  0  0  0  0
   58.5784   81.0561   32.7766 H   0  0  0  0  0  0  0  0  0  0  0  0
   60.8448   84.1489   30.0552 H   0  0  0  0  0  0  0  0  0  0  0  0
   63.1234   84.5555   31.7263 H   0  0  0  0  0  0  0  0  0  0  0  0
   62.2934   84.3843   33.0309 H   0  0  0  0  0  0  0  0  0  0  0  0
   62.7754   82.1726   30.7376 H   0  0  0  0  0  0  0  0  0  0  0  0
   61.8845   81.5844   31.8692 H   0  0  0  0  0  0  0  0  0  0  0  0
   59.2532   82.9679   28.9667 H   0  0  0  0  0  0  0  0  0  0  0  0
   58.5503   80.8887   27.7983 H   0  0  0  0  0  0  0  0  0  0  0  0
   54.8392   75.1699   29.0708 H   0  0  0  0  0  0  0  0  0  0  0  0
   53.5150   78.0143   24.9395 H   0  0  0  0  0  0  0  0  0  0  0  0
   52.0215   78.9866   25.2410 H   0  0  0  0  0  0  0  0  0  0  0  0
   54.3850   79.7326   23.4680 H   0  0  0  0  0  0  0  0  0  0  0  0
   52.6799   79.2939   22.9687 H   0  0  0  0  0  0  0  0  0  0  0  0
  1  2  1  0
  2  3  1  0
  3  4  1  0
  4  5  1  0
  5  6  1  0
  6  7  1  0
  7  8  2  0
  8  9  1  0
  9 10  1  0
 10 11  1  0
 11 12  1  0
 12 13  2  0
 13 14  1  0
 14 15  1  0
 15 16  1  0
 15 17  1  0
 17 18  1  0
 18 19  1  0
 14 20  2  0
 20 21  1  0
  9 22  2  0
 22 23  1  0
 23 24  2  0
 24 25  1  0
 25 26  1  0
 25 27  1  0
 25 28  1  0
  5 29  1  0
 29 30  1  0
 30  2  1  0
 24  7  1  0
 21 11  2  0
 19 17  1  0
  1 31  1  0
  1 32  1  0
  1 33  1  0
  3 34  1  0
  3 35  1  0
  4 36  1  0
  4 37  1  0
  5 38  1  0
 10 39  1  0
 12 40  1  0
 13 41  1  0
 17 42  1  0
 18 43  1  0
 18 44  1  0
 19 45  1  0
 19 46  1  0
 20 47  1  0
 21 48  1  0
 23 49  1  0
 29 50  1  0
 29 51  1  0
 30 52  1  0
 30 53  1  0
M  CHG  2  15   1  16  -1
M  END
>  <meeko>  (1) 
{"is_sidechain": false}

>  <smiles>  (1) 
CN1CCC(Oc2nc(Nc3ccc([S+]([O-])C4CC4)cc3)ncc2C(F)(F)F)CC1

>  <vina_score>  (1) 
-8.209

>  <job_id>  (1) 
237234f9b5ca545e

$$$$
