
     RDKit          3D

 73 78  0  0  0  0  0  0  0  0999 V2000
   58.1780   82.4840   32.5460 C   0  0  0  0  0  0  0  0  0  0  0  0
   58.1980   81.1470   32.1370 C   0  0  0  0  0  0  0  0  0  0  0  0
   58.9490   80.7820   31.0290 C   0  0  0  0  0  0  0  0  0  0  0  0
   58.9860   79.4540   30.5730 N   0  0  0  0  0  0  0  0  0  0  0  0
   58.7380   79.1140   29.2670 N   0  0  0  0  0  0  0  0  0  0  0  0
   57.4630   79.2260   28.6880 C   0  0  0  0  0  0  0  0  0  0  0  0
   56.4520   78.3210   28.9900 C   0  0  0  0  0  0  0  0  0  0  0  0
   55.2070   78.4630   28.3810 C   0  0  0  0  0  0  0  0  0  0  0  0
   54.9950   79.5110   27.4870 C   0  0  0  0  0  0  0  0  0  0  0  0
   56.0660   80.3640   27.2240 C   0  0  0  0  0  0  0  0  0  0  0  0
   57.2830   80.2360   27.8120 N   0  0  0  0  0  0  0  0  0  0  0  0
   55.8860   81.5310   26.2920 C   0  0  0  0  0  0  0  0  0  0  0  0
   54.6690   81.3630   25.3780 C   0  0  0  0  0  0  0  0  0  0  0  0
   53.4810   80.9950   26.1660 N   0  0  0  0  0  0  0  0  0  0  0  0
   52.2500   80.9940   25.3500 C   0  0  0  0  0  0  0  0  0  0  0  0
   52.4390   81.2360   23.8350 C   0  0  2  0  0  0  0  0  0  0  0  0
   51.9900   82.6510   23.4100 C   0  0  0  0  0  0  0  0  0  0  0  0
   52.1900   82.9100   21.9680 N   0  0  0  0  0  0  0  0  0  0  0  0
   52.1140   81.6640   21.1910 C   0  0  0  0  0  0  0  0  0  0  0  0
   51.2320   80.5970   21.8500 C   0  0  0  0  0  0  0  0  0  0  0  0
   51.6930   80.2040   23.1480 O   0  0  0  0  0  0  0  0  0  0  0  0
   53.6810   79.6600   26.7650 C   0  0  0  0  0  0  0  0  0  0  0  0
   59.6520   81.6850   30.3260 N   0  0  0  0  0  0  0  0  0  0  0  0
   59.6100   82.9760   30.7540 C   0  0  0  0  0  0  0  0  0  0  0  0
   58.8940   83.4640   31.8540 C   0  0  0  0  0  0  0  0  0  0  0  0
   58.8980   84.7940   32.2330 N   0  0  0  0  0  0  0  0  0  0  0  0
   59.5690   85.2350   33.4680 C   0  0  0  0  0  0  0  0  0  0  0  0
   60.0670   86.6940   33.3450 C   0  0  0  0  0  0  0  0  0  0  0  0
   59.0390   87.6980   32.9940 N   0  0  0  0  0  0  0  0  0  0  0  0
   58.5360   88.3900   34.1860 C   0  0  0  0  0  0  0  0  0  0  0  0
   57.2060   87.8320   34.6090 C   0  0  0  0  0  0  0  0  0  0  0  0
   56.3100   88.6070   35.5450 C   0  0  0  0  0  0  0  0  0  0  0  0
   56.9910   87.3570   36.0260 C   0  0  0  0  0  0  0  0  0  0  0  0
   57.9460   87.0840   32.2070 C   0  0  0  0  0  0  0  0  0  0  0  0
   58.3690   85.8580   31.3640 C   0  0  0  0  0  0  0  0  0  0  0  0
   57.5875   82.7695   33.4291 H   0  0  0  0  0  0  0  0  0  0  0  0
   57.6224   80.3900   32.6898 H   0  0  0  0  0  0  0  0  0  0  0  0
   58.5410   78.8770   31.2900 H   0  0  0  0  0  0  0  0  0  0  0  0
   59.4120   79.4420   28.5720 H   0  0  0  0  0  0  0  0  0  0  0  0
   56.6329   77.5020   29.7017 H   0  0  0  0  0  0  0  0  0  0  0  0
   54.3970   77.7530   28.6042 H   0  0  0  0  0  0  0  0  0  0  0  0
   55.7554   82.4447   26.8905 H   0  0  0  0  0  0  0  0  0  0  0  0
   56.7799   81.5928   25.6539 H   0  0  0  0  0  0  0  0  0  0  0  0
   54.4765   82.3104   24.8533 H   0  0  0  0  0  0  0  0  0  0  0  0
   54.8765   80.5635   24.6516 H   0  0  0  0  0  0  0  0  0  0  0  0
   51.7639   80.0153   25.4761 H   0  0  0  0  0  0  0  0  0  0  0  0
   51.6537   81.8440   25.7132 H   0  0  0  0  0  0  0  0  0  0  0  0
   53.5055   81.1825   23.5708 H   0  0  0  0  0  0  0  0  0  0  0  0
   50.9207   82.7642   23.6418 H   0  0  0  0  0  0  0  0  0  0  0  0
   52.6079   83.3733   23.9636 H   0  0  0  0  0  0  0  0  0  0  0  0
   51.4730   83.5640   21.6560 H   0  0  0  0  0  0  0  0  0  0  0  0
   51.7009   81.8953   20.1981 H   0  0  0  0  0  0  0  0  0  0  0  0
   53.1328   81.2541   21.1280 H   0  0  0  0  0  0  0  0  0  0  0  0
   50.2126   80.9985   21.9482 H   0  0  0  0  0  0  0  0  0  0  0  0
   51.2656   79.7044   21.2081 H   0  0  0  0  0  0  0  0  0  0  0  0
   52.8677   79.4758   27.4824 H   0  0  0  0  0  0  0  0  0  0  0  0
   53.6840   78.9340   25.9386 H   0  0  0  0  0  0  0  0  0  0  0  0
   60.1961   83.7083   30.1794 H   0  0  0  0  0  0  0  0  0  0  0  0
   58.8590   85.1679   34.3055 H   0  0  0  0  0  0  0  0  0  0  0  0
   60.4385   84.5843   33.6428 H   0  0  0  0  0  0  0  0  0  0  0  0
   60.5053   86.9835   34.3115 H   0  0  0  0  0  0  0  0  0  0  0  0
   60.7833   86.6956   32.5102 H   0  0  0  0  0  0  0  0  0  0  0  0
   59.2571   88.2636   35.0070 H   0  0  0  0  0  0  0  0  0  0  0  0
   58.4096   89.4561   33.9463 H   0  0  0  0  0  0  0  0  0  0  0  0
   57.0894   87.3862   33.6102 H   0  0  0  0  0  0  0  0  0  0  0  0
   56.6300   89.5883   35.9253 H   0  0  0  0  0  0  0  0  0  0  0  0
   55.2687   88.9598   35.5092 H   0  0  0  0  0  0  0  0  0  0  0  0
   57.8092   87.4239   36.7582 H   0  0  0  0  0  0  0  0  0  0  0  0
   56.6539   86.4172   36.4876 H   0  0  0  0  0  0  0  0  0  0  0  0
   57.1581   86.7649   32.9051 H   0  0  0  0  0  0  0  0  0  0  0  0
   57.6069   87.8502   31.4942 H   0  0  0  0  0  0  0  0  0  0  0  0
   57.4951   85.4767   30.8155 H   0  0  0  0  0  0  0  0  0  0  0  0
   59.1547   86.1650   30.6580 H   0  0  0  0  0  0  0  0  0  0  0  0
  1  2  1  0
  2  3  2  0
  3  4  1  0
  4  5  1  0
  5  6  1  0
  6  7  1  0
  7  8  2  0
  8  9  1  0
  9 10  2  0
 10 11  1  0
 10 12  1  0
 12 13  1  0
 13 14  1  0
 14 15  1  0
 15 16  1  0
 16 17  1  0
 17 18  1  0
 18 19  1  0
 19 20  1  0
 20 21  1  0
 14 22  1  0
  3 23  1  0
 23 24  2  0
 24 25  1  0
 25 26  1  0
 26 27  1  0
 27 28  1  0
 28 29  1  0
 29 30  1  0
 30 31  1  0
 31 32  1  0
 32 33  1  0
 29 34  1  0
 34 35  1  0
 25  1  2  0
 35 26  1  0
 11  6  2  0
 21 16  1  0
 33 31  1  0
 22  9  1  0
  1 36  1  0
  2 37  1  0
  4 38  1  0
  5 39  1  0
  7 40  1  0
  8 41  1  0
 12 42  1  0
 12 43  1  0
 13 44  1  0
 13 45  1  0
 15 46  1  0
 15 47  1  0
 16 48  1  1
 17 49  1  0
 17 50  1  0
 18 51  1  0
 19 52  1  0
 19 53  1  0
 20 54  1  0
 20 55  1  0
 22 56  1  0
 22 57  1  0
 24 58  1  0
 27 59  1  0
 27 60  1  0
 28 61  1  0
 28 62  1  0
 30 63  1  0
 30 64  1  0
 31 65  1  0
 32 66  1  0
 32 67  1  0
 33 68  1  0
 33 69  1  0
 34 70  1  0
 34 71  1  0
 35 72  1  0
 35 73  1  0
M  END
>  <meeko>  (1) 
{"is_sidechain": false}

>  <smiles>  (1) 
c1cc(NNc2ccc3c(n2)CCN(C[C@@H]2CNCCO2)C3)ncc1N1CCN(CC2CC2)CC1

>  <vina_score>  (1) 
-8.148

>  <job_id>  (1) 
23e63c874e88e0b7

$$$$
