
     RDKit          3D

 50 52  0  0  0  0  0  0  0  0999 V2000
   58.7280   82.7080   30.4550 C   0  0  0  0  0  0  0  0  0  0  0  0
   58.6980   81.5150   29.4830 C   0  0  0  0  0  0  0  0  0  0  0  0
   58.4540   80.2320   30.2930 C   0  0  0  0  0  0  0  0  0  0  0  0
   60.0590   81.4420   28.7720 C   0  0  0  0  0  0  0  0  0  0  0  0
   57.6060   81.7380   28.5230 N   0  0  0  0  0  0  0  0  0  0  0  0
   57.1370   80.7930   27.6450 C   0  0  0  0  0  0  0  0  0  0  0  0
   57.5830   79.6620   27.5140 O   0  0  0  0  0  0  0  0  0  0  0  0
   55.9530   81.2180   26.8720 C   0  0  0  0  0  0  0  0  0  0  0  0
   55.4420   82.4610   26.8270 C   0  0  0  0  0  0  0  0  0  0  0  0
   54.3640   82.4320   25.8650 C   0  0  0  0  0  0  0  0  0  0  0  0
   53.5100   83.3850   25.3950 C   0  0  0  0  0  0  0  0  0  0  0  0
   52.5830   83.1080   24.4550 N   0  0  0  0  0  0  0  0  0  0  0  0
   52.5230   81.8470   23.9840 C   0  0  0  0  0  0  0  0  0  0  0  0
   51.6110   81.4820   23.0080 N   0  0  0  0  0  0  0  0  0  0  0  0
   51.8420   81.4310   21.6710 C   0  0  0  0  0  0  0  0  0  0  0  0
   50.7490   80.9820   20.9810 N   0  0  0  0  0  0  0  0  0  0  0  0
   52.8510   81.7330   21.0520 O   0  0  0  0  0  0  0  0  0  0  0  0
   53.3310   80.8430   24.3750 N   0  0  0  0  0  0  0  0  0  0  0  0
   54.2230   81.1690   25.3220 C   0  0  0  0  0  0  0  0  0  0  0  0
   55.2530   80.2360   25.9370 C   0  0  0  0  0  0  0  0  0  0  0  0
   54.6890   79.0080   26.6750 C   0  0  0  0  0  0  0  0  0  0  0  0
   53.5750   78.2630   25.9400 C   0  0  0  0  0  0  0  0  0  0  0  0
   53.0330   77.3040   26.9950 C   0  0  0  0  0  0  0  0  0  0  0  0
   53.2670   77.9890   28.3430 C   0  0  0  0  0  0  0  0  0  0  0  0
   54.0590   79.2620   28.0480 C   0  0  0  0  0  0  0  0  0  0  0  0
   58.7187   82.3375   31.4907 H   0  0  0  0  0  0  0  0  0  0  0  0
   59.6412   83.2970   30.2845 H   0  0  0  0  0  0  0  0  0  0  0  0
   57.8455   83.3422   30.2845 H   0  0  0  0  0  0  0  0  0  0  0  0
   58.4979   80.4629   31.3676 H   0  0  0  0  0  0  0  0  0  0  0  0
   57.4624   79.8252   30.0456 H   0  0  0  0  0  0  0  0  0  0  0  0
   59.2270   79.4896   30.0456 H   0  0  0  0  0  0  0  0  0  0  0  0
   60.8626   81.3989   29.5219 H   0  0  0  0  0  0  0  0  0  0  0  0
   60.0960   80.5406   28.1427 H   0  0  0  0  0  0  0  0  0  0  0  0
   60.1922   82.3343   28.1427 H   0  0  0  0  0  0  0  0  0  0  0  0
   57.0430   82.5670   28.6570 H   0  0  0  0  0  0  0  0  0  0  0  0
   55.7791   83.3311   27.4095 H   0  0  0  0  0  0  0  0  0  0  0  0
   53.5787   84.4081   25.7933 H   0  0  0  0  0  0  0  0  0  0  0  0
   50.6670   81.4130   23.3430 H   0  0  0  0  0  0  0  0  0  0  0  0
   50.2460   80.2100   21.3940 H   0  0  0  0  0  0  0  0  0  0  0  0
   50.9590   80.8510   19.9980 H   0  0  0  0  0  0  0  0  0  0  0  0
   55.8885   79.7367   25.1908 H   0  0  0  0  0  0  0  0  0  0  0  0
   55.6236   78.4331   26.7522 H   0  0  0  0  0  0  0  0  0  0  0  0
   52.7929   78.9588   25.6021 H   0  0  0  0  0  0  0  0  0  0  0  0
   53.9283   77.7487   25.0341 H   0  0  0  0  0  0  0  0  0  0  0  0
   51.9588   77.1279   26.8365 H   0  0  0  0  0  0  0  0  0  0  0  0
   53.5330   76.3254   26.9467 H   0  0  0  0  0  0  0  0  0  0  0  0
   52.3053   78.2399   28.8143 H   0  0  0  0  0  0  0  0  0  0  0  0
   53.8128   77.3311   29.0353 H   0  0  0  0  0  0  0  0  0  0  0  0
   53.3925   80.1364   28.0149 H   0  0  0  0  0  0  0  0  0  0  0  0
   54.8110   79.4771   28.8215 H   0  0  0  0  0  0  0  0  0  0  0  0
  1  2  1  0
  2  3  1  0
  2  4  1  0
  2  5  1  0
  5  6  1  0
  6  7  2  0
  6  8  1  0
  8  9  2  0
  9 10  1  0
 10 11  2  0
 11 12  1  0
 12 13  2  0
 13 14  1  0
 14 15  1  0
 15 16  1  0
 15 17  2  0
 13 18  1  0
 18 19  2  0
 19 20  1  0
 20 21  1  0
 21 22  1  0
 22 23  1  0
 23 24  1  0
 24 25  1  0
 20  8  1  0
 25 21  1  0
 19 10  1  0
  1 26  1  0
  1 27  1  0
  1 28  1  0
  3 29  1  0
  3 30  1  0
  3 31  1  0
  4 32  1  0
  4 33  1  0
  4 34  1  0
  5 35  1  0
  9 36  1  0
 11 37  1  0
 14 38  1  0
 16 39  1  0
 16 40  1  0
 20 41  1  0
 21 42  1  0
 22 43  1  0
 22 44  1  0
 23 45  1  0
 23 46  1  0
 24 47  1  0
 24 48  1  0
 25 49  1  0
 25 50  1  0
M  END
>  <meeko>  (1) 
{"is_sidechain": false}

>  <smiles>  (1) 
CC(C)(C)NC(=O)C1=Cc2cnc(NC(N)=O)nc2C1C1CCCC1

>  <vina_score>  (1) 
-8.359

>  <job_id>  (1) 
24229842cb65518c

$$$$
