
     RDKit          3D

 72 77  0  0  0  0  0  0  0  0999 V2000
   65.3800   74.8000   37.0220 C   0  0  0  0  0  0  0  0  0  0  0  0
   65.3290   76.1640   37.6440 C   0  0  0  0  0  0  0  0  0  0  0  0
   64.1030   76.7880   37.8560 C   0  0  0  0  0  0  0  0  0  0  0  0
   64.0740   78.0610   38.4360 C   0  0  0  0  0  0  0  0  0  0  0  0
   62.7670   78.7710   38.6560 C   0  0  0  0  0  0  0  0  0  0  0  0
   62.2780   79.3440   37.4310 N   0  0  0  0  0  0  0  0  0  0  0  0
   61.4670   80.4530   37.3930 C   0  0  0  0  0  0  0  0  0  0  0  0
   61.1930   81.1350   38.3770 O   0  0  0  0  0  0  0  0  0  0  0  0
   60.9460   80.7370   36.0450 C   0  0  0  0  0  0  0  0  0  0  0  0
   59.6310   80.6110   35.7540 N   0  0  0  0  0  0  0  0  0  0  0  0
   59.5390   80.9360   34.4420 N   0  0  0  0  0  0  0  0  0  0  0  0
   58.2450   80.9130   33.8020 C   0  0  0  0  0  0  0  0  0  0  0  0
   60.7390   81.2710   33.8890 C   0  0  0  0  0  0  0  0  0  0  0  0
   61.6700   81.1570   34.9020 C   0  0  0  0  0  0  0  0  0  0  0  0
   63.1190   81.4180   34.6700 C   0  0  0  0  0  0  0  0  0  0  0  0
   63.3340   82.3640   33.4590 C   0  0  0  0  0  0  0  0  0  0  0  0
   62.3560   82.1650   32.3270 C   0  0  0  0  0  0  0  0  0  0  0  0
   62.6100   82.5300   31.0320 C   0  0  0  0  0  0  0  0  0  0  0  0
   61.7080   82.4060   30.0400 N   0  0  0  0  0  0  0  0  0  0  0  0
   60.4960   81.9110   30.3450 C   0  0  0  0  0  0  0  0  0  0  0  0
   59.5050   81.7440   29.3820 N   0  0  0  0  0  0  0  0  0  0  0  0
   58.4660   80.8260   29.2020 C   0  0  0  0  0  0  0  0  0  0  0  0
   57.7360   80.8610   28.0100 C   0  0  0  0  0  0  0  0  0  0  0  0
   56.6840   79.9630   27.7660 C   0  0  0  0  0  0  0  0  0  0  0  0
   56.3090   78.9860   28.6980 C   0  0  0  0  0  0  0  0  0  0  0  0
   55.2760   78.1000   28.4520 N   0  0  0  0  0  0  0  0  0  0  0  0
   54.9890   76.9700   29.3520 C   0  0  0  0  0  0  0  0  0  0  0  0
   54.2370   75.8510   28.5940 C   0  0  0  0  0  0  0  0  0  0  0  0
   52.9340   76.2690   28.0320 N   0  0  0  0  0  0  0  0  0  0  0  0
   52.5750   75.4280   26.8930 C   0  0  0  0  0  0  0  0  0  0  0  0
   52.9370   77.7040   27.6780 C   0  0  0  0  0  0  0  0  0  0  0  0
   54.3210   78.3160   27.3520 C   0  0  0  0  0  0  0  0  0  0  0  0
   57.0530   78.9570   29.8840 C   0  0  0  0  0  0  0  0  0  0  0  0
   58.1060   79.8560   30.1330 C   0  0  0  0  0  0  0  0  0  0  0  0
   60.1400   81.5410   31.5870 N   0  0  0  0  0  0  0  0  0  0  0  0
   61.0740   81.6810   32.5400 C   0  0  0  0  0  0  0  0  0  0  0  0
   65.2880   78.6690   38.7660 C   0  0  0  0  0  0  0  0  0  0  0  0
   66.4610   77.9750   38.5200 C   0  0  0  0  0  0  0  0  0  0  0  0
   66.5080   76.7420   37.9740 N   0  0  0  0  0  0  0  0  0  0  0  0
   65.4085   74.0368   37.8137 H   0  0  0  0  0  0  0  0  0  0  0  0
   64.4869   74.6479   36.3981 H   0  0  0  0  0  0  0  0  0  0  0  0
   66.2819   74.7150   36.3981 H   0  0  0  0  0  0  0  0  0  0  0  0
   63.1669   76.2857   37.5706 H   0  0  0  0  0  0  0  0  0  0  0  0
   62.0269   78.0519   39.0371 H   0  0  0  0  0  0  0  0  0  0  0  0
   62.9270   79.5816   39.3822 H   0  0  0  0  0  0  0  0  0  0  0  0
   62.3220   78.8170   36.5620 H   0  0  0  0  0  0  0  0  0  0  0  0
   57.4567   80.8990   34.5691 H   0  0  0  0  0  0  0  0  0  0  0  0
   58.1302   81.8092   33.1746 H   0  0  0  0  0  0  0  0  0  0  0  0
   58.1622   80.0132   33.1746 H   0  0  0  0  0  0  0  0  0  0  0  0
   63.5478   81.8840   35.5694 H   0  0  0  0  0  0  0  0  0  0  0  0
   63.6145   80.4598   34.4547 H   0  0  0  0  0  0  0  0  0  0  0  0
   63.2428   83.4014   33.8132 H   0  0  0  0  0  0  0  0  0  0  0  0
   64.3307   82.1329   33.0551 H   0  0  0  0  0  0  0  0  0  0  0  0
   63.5996   82.9449   30.7901 H   0  0  0  0  0  0  0  0  0  0  0  0
   59.5760   82.4860   28.7040 H   0  0  0  0  0  0  0  0  0  0  0  0
   57.9916   81.6094   27.2454 H   0  0  0  0  0  0  0  0  0  0  0  0
   56.1374   80.0286   26.8137 H   0  0  0  0  0  0  0  0  0  0  0  0
   55.9358   76.5692   29.7430 H   0  0  0  0  0  0  0  0  0  0  0  0
   54.3573   77.3257   30.1793 H   0  0  0  0  0  0  0  0  0  0  0  0
   54.8747   75.5060   27.7668 H   0  0  0  0  0  0  0  0  0  0  0  0
   54.0253   75.0594   29.3278 H   0  0  0  0  0  0  0  0  0  0  0  0
   52.1674   74.4731   27.2563 H   0  0  0  0  0  0  0  0  0  0  0  0
   51.8176   75.9414   26.2824 H   0  0  0  0  0  0  0  0  0  0  0  0
   53.4697   75.2362   26.2824 H   0  0  0  0  0  0  0  0  0  0  0  0
   52.2940   77.8349   26.7952 H   0  0  0  0  0  0  0  0  0  0  0  0
   52.5808   78.2329   28.5743 H   0  0  0  0  0  0  0  0  0  0  0  0
   54.7144   77.8455   26.4388 H   0  0  0  0  0  0  0  0  0  0  0  0
   54.1958   79.3995   27.2097 H   0  0  0  0  0  0  0  0  0  0  0  0
   56.8054   78.2050   30.6476 H   0  0  0  0  0  0  0  0  0  0  0  0
   58.6563   79.7910   31.0832 H   0  0  0  0  0  0  0  0  0  0  0  0
   65.3115   79.6749   39.2106 H   0  0  0  0  0  0  0  0  0  0  0  0
   67.4125   78.4585   38.7860 H   0  0  0  0  0  0  0  0  0  0  0  0
  1  2  1  0
  2  3  2  0
  3  4  1  0
  4  5  1  0
  5  6  1  0
  6  7  1  0
  7  8  2  0
  7  9  1  0
  9 10  2  0
 10 11  1  0
 11 12  1  0
 11 13  1  0
 13 14  2  0
 14 15  1  0
 15 16  1  0
 16 17  1  0
 17 18  2  0
 18 19  1  0
 19 20  2  0
 20 21  1  0
 21 22  1  0
 22 23  1  0
 23 24  2  0
 24 25  1  0
 25 26  1  0
 26 27  1  0
 27 28  1  0
 28 29  1  0
 29 30  1  0
 29 31  1  0
 31 32  1  0
 25 33  2  0
 33 34  1  0
 20 35  1  0
 35 36  2  0
  4 37  2  0
 37 38  1  0
 38 39  2  0
 39  2  1  0
 14  9  1  0
 36 17  1  0
 36 13  1  0
 34 22  2  0
 32 26  1  0
  1 40  1  0
  1 41  1  0
  1 42  1  0
  3 43  1  0
  5 44  1  0
  5 45  1  0
  6 46  1  0
 12 47  1  0
 12 48  1  0
 12 49  1  0
 15 50  1  0
 15 51  1  0
 16 52  1  0
 16 53  1  0
 18 54  1  0
 21 55  1  0
 23 56  1  0
 24 57  1  0
 27 58  1  0
 27 59  1  0
 28 60  1  0
 28 61  1  0
 30 62  1  0
 30 63  1  0
 30 64  1  0
 31 65  1  0
 31 66  1  0
 32 67  1  0
 32 68  1  0
 33 69  1  0
 34 70  1  0
 37 71  1  0
 38 72  1  0
M  END
>  <meeko>  (1) 
{"is_sidechain": false}

>  <smiles>  (1) 
Cc1cc(CNC(=O)c2nn(C)c3c2CCc2cnc(Nc4ccc(N5CCN(C)CC5)cc4)nc2-3)ccn1

>  <vina_score>  (1) 
-7.704

>  <job_id>  (1) 
2435840238f3ac1c

$$$$
