
     RDKit          3D

 47 49  0  0  0  0  0  0  0  0999 V2000
   51.8100   74.9820   25.6680 C   0  0  0  0  0  0  0  0  0  0  0  0
   51.9830   75.9110   26.7300 O   0  0  0  0  0  0  0  0  0  0  0  0
   52.7090   75.3560   27.8290 C   0  0  0  0  0  0  0  0  0  0  0  0
   53.7500   76.3130   28.3580 C   0  0  0  0  0  0  0  0  0  0  0  0
   53.6930   77.6760   28.0430 C   0  0  0  0  0  0  0  0  0  0  0  0
   54.6710   78.5560   28.5170 C   0  0  0  0  0  0  0  0  0  0  0  0
   55.7310   78.0900   29.3040 C   0  0  0  0  0  0  0  0  0  0  0  0
   56.6690   79.0430   29.7530 N   0  0  0  0  0  0  0  0  0  0  0  0
   57.7840   79.5030   29.0890 C   0  0  0  0  0  0  0  0  0  0  0  0
   58.0630   79.2450   27.9220 O   0  0  0  0  0  0  0  0  0  0  0  0
   58.5980   80.3300   29.8550 N   0  0  0  0  0  0  0  0  0  0  0  0
   58.5420   80.4540   31.3160 C   0  0  0  0  0  0  0  0  0  0  0  0
   59.8810   80.8760   31.9520 C   0  0  0  0  0  0  0  0  0  0  0  0
   60.3980   82.1090   31.3400 N   0  0  0  0  0  0  0  0  0  0  0  0
   61.3110   82.9220   31.9960 C   0  0  0  0  0  0  0  0  0  0  0  0
   61.5880   82.7510   33.3650 C   0  0  0  0  0  0  0  0  0  0  0  0
   62.5130   83.5570   34.0410 C   0  0  0  0  0  0  0  0  0  0  0  0
   63.1810   84.5530   33.3510 C   0  0  0  0  0  0  0  0  0  0  0  0
   64.0670   85.3260   33.9910 F   0  0  0  0  0  0  0  0  0  0  0  0
   62.9440   84.7530   32.0010 C   0  0  0  0  0  0  0  0  0  0  0  0
   62.0180   83.9410   31.3340 C   0  0  0  0  0  0  0  0  0  0  0  0
   60.1490   82.2930   29.8950 C   0  0  0  0  0  0  0  0  0  0  0  0
   59.7350   80.9830   29.2030 C   0  0  0  0  0  0  0  0  0  0  0  0
   55.7880   76.7320   29.6190 C   0  0  0  0  0  0  0  0  0  0  0  0
   54.8100   75.8490   29.1450 C   0  0  0  0  0  0  0  0  0  0  0  0
   51.6235   73.9807   26.0835 H   0  0  0  0  0  0  0  0  0  0  0  0
   50.9533   75.2877   25.0494 H   0  0  0  0  0  0  0  0  0  0  0  0
   52.7193   74.9588   25.0494 H   0  0  0  0  0  0  0  0  0  0  0  0
   52.0023   75.1171   28.6374 H   0  0  0  0  0  0  0  0  0  0  0  0
   53.2263   74.4525   27.4739 H   0  0  0  0  0  0  0  0  0  0  0  0
   52.8724   78.0577   27.4177 H   0  0  0  0  0  0  0  0  0  0  0  0
   54.6068   79.6257   28.2689 H   0  0  0  0  0  0  0  0  0  0  0  0
   56.3950   79.5760   30.5620 H   0  0  0  0  0  0  0  0  0  0  0  0
   57.7828   81.2077   31.5720 H   0  0  0  0  0  0  0  0  0  0  0  0
   58.2954   79.4589   31.7146 H   0  0  0  0  0  0  0  0  0  0  0  0
   59.7286   81.0466   33.0280 H   0  0  0  0  0  0  0  0  0  0  0  0
   60.6132   80.0722   31.7853 H   0  0  0  0  0  0  0  0  0  0  0  0
   61.0624   81.9607   33.9210 H   0  0  0  0  0  0  0  0  0  0  0  0
   62.7068   83.3993   35.1122 H   0  0  0  0  0  0  0  0  0  0  0  0
   63.4796   85.5445   31.4563 H   0  0  0  0  0  0  0  0  0  0  0  0
   61.8388   84.1053   30.2612 H   0  0  0  0  0  0  0  0  0  0  0  0
   59.3438   83.0312   29.7659 H   0  0  0  0  0  0  0  0  0  0  0  0
   61.0863   82.6363   29.4328 H   0  0  0  0  0  0  0  0  0  0  0  0
   59.4612   81.2073   28.1615 H   0  0  0  0  0  0  0  0  0  0  0  0
   60.5902   80.2936   29.2615 H   0  0  0  0  0  0  0  0  0  0  0  0
   56.6085   76.3516   30.2452 H   0  0  0  0  0  0  0  0  0  0  0  0
   54.8756   74.7795   29.3939 H   0  0  0  0  0  0  0  0  0  0  0  0
  1  2  1  0
  2  3  1  0
  3  4  1  0
  4  5  1  0
  5  6  2  0
  6  7  1  0
  7  8  1  0
  8  9  1  0
  9 10  2  0
  9 11  1  0
 11 12  1  0
 12 13  1  0
 13 14  1  0
 14 15  1  0
 15 16  1  0
 16 17  2  0
 17 18  1  0
 18 19  1  0
 18 20  2  0
 20 21  1  0
 14 22  1  0
 22 23  1  0
  7 24  2  0
 24 25  1  0
 25  4  2  0
 23 11  1  0
 21 15  2  0
  1 26  1  0
  1 27  1  0
  1 28  1  0
  3 29  1  0
  3 30  1  0
  5 31  1  0
  6 32  1  0
  8 33  1  0
 12 34  1  0
 12 35  1  0
 13 36  1  0
 13 37  1  0
 16 38  1  0
 17 39  1  0
 20 40  1  0
 21 41  1  0
 22 42  1  0
 22 43  1  0
 23 44  1  0
 23 45  1  0
 24 46  1  0
 25 47  1  0
M  END
>  <meeko>  (1) 
{"is_sidechain": false}

>  <smiles>  (1) 
COCc1ccc(NC(=O)N2CCN(c3ccc(F)cc3)CC2)cc1

>  <vina_score>  (1) 
-7.138

>  <job_id>  (1) 
243eba9af189145b

$$$$
