
     RDKit          3D

 63 67  0  0  0  0  0  0  0  0999 V2000
   65.9410   82.7110   31.0200 C   0  0  0  0  0  0  0  0  0  0  0  0
   65.0200   83.2390   32.0230 N   0  0  0  0  0  0  0  0  0  0  0  0
   64.0990   84.2460   31.4500 C   0  0  0  0  0  0  0  0  0  0  0  0
   62.7300   83.6990   30.9800 C   0  0  0  0  0  0  0  0  0  0  0  0
   62.0160   82.9810   32.0670 N   0  0  0  0  0  0  0  0  0  0  0  0
   60.9920   82.1470   31.6080 C   0  0  0  0  0  0  0  0  0  0  0  0
   60.2990   81.3400   32.5210 C   0  0  0  0  0  0  0  0  0  0  0  0
   59.2820   80.4640   32.1140 C   0  0  0  0  0  0  0  0  0  0  0  0
   58.9390   80.3450   30.7660 C   0  0  0  0  0  0  0  0  0  0  0  0
   57.9110   79.4870   30.2950 N   0  0  0  0  0  0  0  0  0  0  0  0
   58.0480   78.8070   29.0790 N   0  0  0  0  0  0  0  0  0  0  0  0
   56.9540   79.0760   28.2160 N   0  0  0  0  0  0  0  0  0  0  0  0
   57.3150   80.0360   27.2560 N   0  0  0  0  0  0  0  0  0  0  0  0
   56.3070   80.9140   26.8210 C   0  0  0  0  0  0  0  0  0  0  0  0
   56.3570   82.1740   27.2900 N   0  0  0  0  0  0  0  0  0  0  0  0
   55.3900   83.0210   26.8850 C   0  0  0  0  0  0  0  0  0  0  0  0
   54.3930   82.6670   26.0100 C   0  0  0  0  0  0  0  0  0  0  0  0
   54.4430   81.3470   25.5870 C   0  0  0  0  0  0  0  0  0  0  0  0
   55.3670   80.4580   25.9720 N   0  0  0  0  0  0  0  0  0  0  0  0
   53.4380   80.9160   24.6330 C   0  0  0  0  0  0  0  0  0  0  0  0
   52.5550   81.7830   24.0180 C   0  0  0  0  0  0  0  0  0  0  0  0
   51.7540   80.9800   23.1710 C   0  0  0  0  0  0  0  0  0  0  0  0
   50.6670   81.4140   22.2810 C   0  0  0  0  0  0  0  0  0  0  0  0
   49.4280   80.9810   22.6660 N   0  0  0  0  0  0  0  0  0  0  0  0
   50.8270   82.1010   21.2780 O   0  0  0  0  0  0  0  0  0  0  0  0
   52.1210   79.6820   23.2600 N   0  0  0  0  0  0  0  0  0  0  0  0
   53.1570   79.6780   24.1340 N   0  0  0  0  0  0  0  0  0  0  0  0
   53.8300   78.4330   24.4210 C   0  0  0  0  0  0  0  0  0  0  0  0
   52.5980   83.2530   24.2560 C   0  0  0  0  0  0  0  0  0  0  0  0
   53.2650   83.5890   25.6160 C   0  0  0  0  0  0  0  0  0  0  0  0
   59.5840   81.1880   29.8550 C   0  0  0  0  0  0  0  0  0  0  0  0
   60.6020   82.0610   30.2680 C   0  0  0  0  0  0  0  0  0  0  0  0
   62.8800   82.5540   33.1880 C   0  0  0  0  0  0  0  0  0  0  0  0
   64.2760   82.1360   32.6790 C   0  0  0  0  0  0  0  0  0  0  0  0
   66.7901   82.2242   31.5220 H   0  0  0  0  0  0  0  0  0  0  0  0
   65.4166   81.9764   30.3913 H   0  0  0  0  0  0  0  0  0  0  0  0
   66.3100   83.5347   30.3913 H   0  0  0  0  0  0  0  0  0  0  0  0
   63.9135   85.0122   32.2171 H   0  0  0  0  0  0  0  0  0  0  0  0
   64.5963   84.6351   30.5493 H   0  0  0  0  0  0  0  0  0  0  0  0
   62.1080   84.5409   30.6419 H   0  0  0  0  0  0  0  0  0  0  0  0
   62.9111   82.9855   30.1626 H   0  0  0  0  0  0  0  0  0  0  0  0
   60.5605   81.3954   33.5880 H   0  0  0  0  0  0  0  0  0  0  0  0
   58.7485   79.8638   32.8657 H   0  0  0  0  0  0  0  0  0  0  0  0
   57.0010   79.9470   30.3510 H   0  0  0  0  0  0  0  0  0  0  0  0
   58.9510   78.9960   28.6380 H   0  0  0  0  0  0  0  0  0  0  0  0
   56.6690   78.2140   27.7290 H   0  0  0  0  0  0  0  0  0  0  0  0
   58.1290   80.5980   27.4860 H   0  0  0  0  0  0  0  0  0  0  0  0
   55.4001   84.0492   27.2758 H   0  0  0  0  0  0  0  0  0  0  0  0
   49.3570   80.4190   23.5070 H   0  0  0  0  0  0  0  0  0  0  0  0
   48.6150   81.2300   22.1260 H   0  0  0  0  0  0  0  0  0  0  0  0
   53.9029   78.2982   25.5103 H   0  0  0  0  0  0  0  0  0  0  0  0
   53.2598   77.5991   23.9857 H   0  0  0  0  0  0  0  0  0  0  0  0
   54.8400   78.4533   23.9857 H   0  0  0  0  0  0  0  0  0  0  0  0
   53.1732   83.7293   23.4483 H   0  0  0  0  0  0  0  0  0  0  0  0
   51.5648   83.6301   24.2755 H   0  0  0  0  0  0  0  0  0  0  0  0
   53.6634   84.6127   25.5586 H   0  0  0  0  0  0  0  0  0  0  0  0
   52.4848   83.4706   26.3823 H   0  0  0  0  0  0  0  0  0  0  0  0
   59.2879   81.1662   28.7958 H   0  0  0  0  0  0  0  0  0  0  0  0
   61.1047   82.6922   29.5204 H   0  0  0  0  0  0  0  0  0  0  0  0
   62.9898   83.3885   33.8962 H   0  0  0  0  0  0  0  0  0  0  0  0
   62.4128   81.6896   33.6824 H   0  0  0  0  0  0  0  0  0  0  0  0
   64.8665   81.7785   33.5355 H   0  0  0  0  0  0  0  0  0  0  0  0
   64.1238   81.3526   31.9220 H   0  0  0  0  0  0  0  0  0  0  0  0
  1  2  1  0
  2  3  1  0
  3  4  1  0
  4  5  1  0
  5  6  1  0
  6  7  1  0
  7  8  2  0
  8  9  1  0
  9 10  1  0
 10 11  1  0
 11 12  1  0
 12 13  1  0
 13 14  1  0
 14 15  2  0
 15 16  1  0
 16 17  2  0
 17 18  1  0
 18 19  2  0
 18 20  1  0
 20 21  2  0
 21 22  1  0
 22 23  1  0
 23 24  1  0
 23 25  2  0
 22 26  2  0
 26 27  1  0
 27 28  1  0
 21 29  1  0
 29 30  1  0
  9 31  2  0
 31 32  1  0
  5 33  1  0
 33 34  1  0
 34  2  1  0
 32  6  2  0
 19 14  1  0
 27 20  1  0
 30 17  1  0
  1 35  1  0
  1 36  1  0
  1 37  1  0
  3 38  1  0
  3 39  1  0
  4 40  1  0
  4 41  1  0
  7 42  1  0
  8 43  1  0
 10 44  1  0
 11 45  1  0
 12 46  1  0
 13 47  1  0
 16 48  1  0
 24 49  1  0
 24 50  1  0
 28 51  1  0
 28 52  1  0
 28 53  1  0
 29 54  1  0
 29 55  1  0
 30 56  1  0
 30 57  1  0
 31 58  1  0
 32 59  1  0
 33 60  1  0
 33 61  1  0
 34 62  1  0
 34 63  1  0
M  END
>  <meeko>  (1) 
{"is_sidechain": false}

>  <smiles>  (1) 
CN1CCN(c2ccc(NNNNc3ncc4c(n3)-c3c(c(C(N)=O)nn3C)CC4)cc2)CC1

>  <vina_score>  (1) 
-9.025

>  <job_id>  (1) 
24c501193796d4af

$$$$
