
     RDKit          3D

 42 43  0  0  0  0  0  0  0  0999 V2000
   53.2160   75.7280   28.0210 C   0  0  0  0  0  0  0  0  0  0  0  0
   54.4460   76.2120   28.7700 C   0  0  0  0  0  0  0  0  0  0  0  0
   54.2390   77.5870   29.1070 O   0  0  0  0  0  0  0  0  0  0  0  0
   55.2240   78.4340   28.6730 C   0  0  0  0  0  0  0  0  0  0  0  0
   56.3080   78.5670   29.5440 C   0  0  0  0  0  0  0  0  0  0  0  0
   57.3880   79.4000   29.2280 C   0  0  0  0  0  0  0  0  0  0  0  0
   58.4290   79.4810   30.1790 N   0  0  0  0  0  0  0  0  0  0  0  0
   58.6740   80.4940   31.0950 C   0  0  0  0  0  0  0  0  0  0  0  0
   58.0240   81.5270   31.1880 O   0  0  0  0  0  0  0  0  0  0  0  0
   59.7570   80.1780   31.8860 N   0  0  0  0  0  0  0  0  0  0  0  0
   60.3480   80.9350   32.8970 C   0  0  0  0  0  0  0  0  0  0  0  0
   60.1960   80.6930   34.2550 C   0  0  0  0  0  0  0  0  0  0  0  0
   60.8390   81.5330   35.1640 C   0  0  0  0  0  0  0  0  0  0  0  0
   61.6080   82.5880   34.6930 C   0  0  0  0  0  0  0  0  0  0  0  0
   61.7020   82.7600   33.3240 C   0  0  0  0  0  0  0  0  0  0  0  0
   61.0900   81.9610   32.4210 N   0  0  0  0  0  0  0  0  0  0  0  0
   57.3720   80.1040   28.0200 C   0  0  0  0  0  0  0  0  0  0  0  0
   56.3070   79.9620   27.1210 C   0  0  0  0  0  0  0  0  0  0  0  0
   56.2160   80.6070   25.9110 O   0  0  0  0  0  0  0  0  0  0  0  0
   55.9350   82.0010   25.9300 C   0  0  0  0  0  0  0  0  0  0  0  0
   55.2460   79.0990   27.4410 C   0  0  0  0  0  0  0  0  0  0  0  0
   54.2140   78.9370   26.5490 O   0  0  0  0  0  0  0  0  0  0  0  0
   53.1360   79.8080   26.8960 C   0  0  0  0  0  0  0  0  0  0  0  0
   52.4434   75.4240   28.7425 H   0  0  0  0  0  0  0  0  0  0  0  0
   52.8282   76.5406   27.3891 H   0  0  0  0  0  0  0  0  0  0  0  0
   53.4859   74.8690   27.3891 H   0  0  0  0  0  0  0  0  0  0  0  0
   54.5840   75.6188   29.6860 H   0  0  0  0  0  0  0  0  0  0  0  0
   55.3450   76.1001   28.1460 H   0  0  0  0  0  0  0  0  0  0  0  0
   56.3131   78.0091   30.4920 H   0  0  0  0  0  0  0  0  0  0  0  0
   59.1170   78.7440   30.1420 H   0  0  0  0  0  0  0  0  0  0  0  0
   60.1700   79.2610   31.8230 H   0  0  0  0  0  0  0  0  0  0  0  0
   59.5793   79.8535   34.6083 H   0  0  0  0  0  0  0  0  0  0  0  0
   60.7374   81.3607   36.2457 H   0  0  0  0  0  0  0  0  0  0  0  0
   62.1265   83.2661   35.3868 H   0  0  0  0  0  0  0  0  0  0  0  0
   62.3102   83.5957   32.9477 H   0  0  0  0  0  0  0  0  0  0  0  0
   58.2058   80.7775   27.7726 H   0  0  0  0  0  0  0  0  0  0  0  0
   55.8653   82.3468   26.9719 H   0  0  0  0  0  0  0  0  0  0  0  0
   56.7416   82.5447   25.4164 H   0  0  0  0  0  0  0  0  0  0  0  0
   54.9807   82.1897   25.4164 H   0  0  0  0  0  0  0  0  0  0  0  0
   53.0553   79.8732   27.9911 H   0  0  0  0  0  0  0  0  0  0  0  0
   53.3258   80.8093   26.4820 H   0  0  0  0  0  0  0  0  0  0  0  0
   52.1969   79.4121   26.4820 H   0  0  0  0  0  0  0  0  0  0  0  0
  1  2  1  0
  2  3  1  0
  3  4  1  0
  4  5  1  0
  5  6  2  0
  6  7  1  0
  7  8  1  0
  8  9  2  0
  8 10  1  0
 10 11  1  0
 11 12  2  0
 12 13  1  0
 13 14  2  0
 14 15  1  0
 15 16  2  0
  6 17  1  0
 17 18  2  0
 18 19  1  0
 19 20  1  0
 18 21  1  0
 21 22  1  0
 22 23  1  0
 21  4  2  0
 16 11  1  0
  1 24  1  0
  1 25  1  0
  1 26  1  0
  2 27  1  0
  2 28  1  0
  5 29  1  0
  7 30  1  0
 10 31  1  0
 12 32  1  0
 13 33  1  0
 14 34  1  0
 15 35  1  0
 17 36  1  0
 20 37  1  0
 20 38  1  0
 20 39  1  0
 23 40  1  0
 23 41  1  0
 23 42  1  0
M  END
>  <meeko>  (1) 
{"is_sidechain": false}

>  <smiles>  (1) 
CCOc1cc(NC(=O)Nc2ccccn2)cc(OC)c1OC

>  <vina_score>  (1) 
-6.496

>  <job_id>  (1) 
24d5f9dca7c82847

$$$$
