
     RDKit          3D

 59 62  0  0  0  0  0  0  0  0999 V2000
   57.6140   80.2470   27.6450 C   0  0  0  0  0  0  0  0  0  0  0  0
   57.5040   79.5110   28.7630 C   0  0  0  0  0  0  0  0  0  0  0  0
   58.3850   79.4760   29.8220 N   0  0  0  0  0  0  0  0  0  0  0  0
   58.6520   80.3510   30.8660 C   0  0  0  0  0  0  0  0  0  0  0  0
   57.7560   80.6090   31.8290 N   0  0  0  0  0  0  0  0  0  0  0  0
   58.1130   81.4710   32.7960 C   0  0  0  0  0  0  0  0  0  0  0  0
   59.3380   82.0840   32.8480 C   0  0  0  0  0  0  0  0  0  0  0  0
   60.2020   81.7500   31.8310 C   0  0  0  0  0  0  0  0  0  0  0  0
   61.5360   82.3300   31.7370 C   0  0  0  0  0  0  0  0  0  0  0  0
   62.1190   82.9930   30.6740 C   0  0  0  0  0  0  0  0  0  0  0  0
   63.4000   83.3610   30.9510 N   0  0  0  0  0  0  0  0  0  0  0  0
   63.6440   82.9320   32.1730 C   0  0  0  0  0  0  0  0  0  0  0  0
   64.9580   83.0990   32.8450 C   0  0  0  0  0  0  0  0  0  0  0  0
   62.5220   82.3320   32.7200 N   0  0  0  0  0  0  0  0  0  0  0  0
   62.3590   81.8130   34.0790 C   0  0  0  0  0  0  0  0  0  0  0  0
   62.5950   82.8480   35.1840 C   0  0  0  0  0  0  0  0  0  0  0  0
   63.1800   80.5450   34.3100 C   0  0  0  0  0  0  0  0  0  0  0  0
   59.8770   80.8980   30.8400 N   0  0  0  0  0  0  0  0  0  0  0  0
   56.3470   78.5720   28.9280 C   0  0  0  0  0  0  0  0  0  0  0  0
   56.3010   77.5930   29.8950 C   0  0  0  0  0  0  0  0  0  0  0  0
   55.1880   76.7930   29.8770 C   0  0  0  0  0  0  0  0  0  0  0  0
   54.1920   76.9270   28.9850 N   0  0  0  0  0  0  0  0  0  0  0  0
   54.3100   77.8930   28.0670 C   0  0  0  0  0  0  0  0  0  0  0  0
   53.3330   78.1230   27.1030 N   0  0  0  0  0  0  0  0  0  0  0  0
   53.1460   79.1010   26.1200 C   0  0  0  0  0  0  0  0  0  0  0  0
   53.3430   78.7450   24.7750 C   0  0  0  0  0  0  0  0  0  0  0  0
   53.1620   79.6680   23.7360 C   0  0  0  0  0  0  0  0  0  0  0  0
   52.7670   80.9760   24.0280 C   0  0  0  0  0  0  0  0  0  0  0  0
   52.5600   81.9990   22.9670 C   0  0  0  0  0  0  0  0  0  0  0  0
   52.6970   81.5980   21.6670 N   0  0  0  0  0  0  0  0  0  0  0  0
   52.2420   83.1510   23.2350 O   0  0  0  0  0  0  0  0  0  0  0  0
   52.5750   81.3490   25.3600 C   0  0  0  0  0  0  0  0  0  0  0  0
   52.7580   80.4160   26.3910 C   0  0  0  0  0  0  0  0  0  0  0  0
   55.3690   78.7140   27.9990 N   0  0  0  0  0  0  0  0  0  0  0  0
   56.8381   80.1858   26.8677 H   0  0  0  0  0  0  0  0  0  0  0  0
   58.4800   80.9110   27.5066 H   0  0  0  0  0  0  0  0  0  0  0  0
   59.1290   78.7920   29.7240 H   0  0  0  0  0  0  0  0  0  0  0  0
   57.3836   81.6967   33.5878 H   0  0  0  0  0  0  0  0  0  0  0  0
   59.6103   82.7915   33.6450 H   0  0  0  0  0  0  0  0  0  0  0  0
   61.6102   83.1983   29.7206 H   0  0  0  0  0  0  0  0  0  0  0  0
   64.8169   83.0811   33.9358 H   0  0  0  0  0  0  0  0  0  0  0  0
   65.6284   82.2788   32.5485 H   0  0  0  0  0  0  0  0  0  0  0  0
   65.4019   84.0608   32.5485 H   0  0  0  0  0  0  0  0  0  0  0  0
   61.2942   81.5473   34.1534 H   0  0  0  0  0  0  0  0  0  0  0  0
   62.4852   82.3665   36.1669 H   0  0  0  0  0  0  0  0  0  0  0  0
   63.6103   83.2606   35.0892 H   0  0  0  0  0  0  0  0  0  0  0  0
   61.8589   83.6599   35.0892 H   0  0  0  0  0  0  0  0  0  0  0  0
   63.2918   80.3724   35.3906 H   0  0  0  0  0  0  0  0  0  0  0  0
   62.6657   79.6868   33.8528 H   0  0  0  0  0  0  0  0  0  0  0  0
   64.1735   80.6631   33.8528 H   0  0  0  0  0  0  0  0  0  0  0  0
   57.1051   77.4614   30.6340 H   0  0  0  0  0  0  0  0  0  0  0  0
   55.1058   75.9986   30.6334 H   0  0  0  0  0  0  0  0  0  0  0  0
   52.6850   77.3500   27.1070 H   0  0  0  0  0  0  0  0  0  0  0  0
   53.6469   77.7162   24.5315 H   0  0  0  0  0  0  0  0  0  0  0  0
   53.3306   79.3632   22.6926 H   0  0  0  0  0  0  0  0  0  0  0  0
   52.6580   80.6250   21.4010 H   0  0  0  0  0  0  0  0  0  0  0  0
   52.4200   82.2790   20.9710 H   0  0  0  0  0  0  0  0  0  0  0  0
   52.2786   82.3803   25.6019 H   0  0  0  0  0  0  0  0  0  0  0  0
   52.5929   80.7254   27.4336 H   0  0  0  0  0  0  0  0  0  0  0  0
  1  2  2  0
  2  3  1  0
  3  4  1  0
  4  5  2  0
  5  6  1  0
  6  7  2  0
  7  8  1  0
  8  9  1  0
  9 10  2  0
 10 11  1  0
 11 12  2  0
 12 13  1  0
 12 14  1  0
 14 15  1  0
 15 16  1  0
 15 17  1  0
  8 18  2  0
  2 19  1  0
 19 20  1  0
 20 21  2  0
 21 22  1  0
 22 23  2  0
 23 24  1  0
 24 25  1  0
 25 26  1  0
 26 27  2  0
 27 28  1  0
 28 29  1  0
 29 30  1  0
 29 31  2  0
 28 32  2  0
 32 33  1  0
 23 34  1  0
 18  4  1  0
 34 19  2  0
 14  9  1  0
 33 25  2  0
  1 35  1  0
  1 36  1  0
  3 37  1  0
  6 38  1  0
  7 39  1  0
 10 40  1  0
 13 41  1  0
 13 42  1  0
 13 43  1  0
 15 44  1  0
 16 45  1  0
 16 46  1  0
 16 47  1  0
 17 48  1  0
 17 49  1  0
 17 50  1  0
 20 51  1  0
 21 52  1  0
 24 53  1  0
 26 54  1  0
 27 55  1  0
 30 56  1  0
 30 57  1  0
 32 58  1  0
 33 59  1  0
M  END
>  <meeko>  (1) 
{"is_sidechain": false}

>  <smiles>  (1) 
C=C(Nc1nccc(-c2cnc(C)n2C(C)C)n1)c1ccnc(Nc2ccc(C(N)=O)cc2)n1

>  <vina_score>  (1) 
-8.690

>  <job_id>  (1) 
24e4f51ab359fcaa

$$$$
