
     RDKit          3D

 57 60  0  0  0  0  0  0  0  0999 V2000
   52.7800   79.9950   23.5670 C   0  0  0  0  0  0  0  0  0  0  0  0
   53.2650   78.9690   24.5850 C   0  0  1  0  0  0  0  0  0  0  0  0
   54.4350   78.3570   24.0150 O   0  0  0  0  0  0  0  0  0  0  0  0
   53.5950   79.5660   25.9800 C   0  0  1  0  0  0  0  0  0  0  0  0
   52.9350   80.9260   26.2130 C   0  0  0  0  0  0  0  0  0  0  0  0
   53.0500   78.7170   27.0190 O   0  0  0  0  0  0  0  0  0  0  0  0
   53.9570   78.1650   27.8940 C   0  0  0  0  0  0  0  0  0  0  0  0
   54.9410   78.9400   28.3640 N   0  0  0  0  0  0  0  0  0  0  0  0
   55.8550   78.3430   29.1450 C   0  0  0  0  0  0  0  0  0  0  0  0
   56.9790   79.1840   29.5360 C   0  0  0  0  0  0  0  0  0  0  0  0
   57.6090   79.2670   30.6930 N   0  0  0  0  0  0  0  0  0  0  0  0
   58.6080   80.2150   30.5350 C   0  0  0  0  0  0  0  0  0  0  0  0
   59.5810   80.6880   31.4640 C   0  0  0  0  0  0  0  0  0  0  0  0
   59.7170   80.2940   32.8250 N   0  0  0  0  0  0  0  0  0  0  0  0
   61.1050   80.0390   33.2740 C   0  0  0  0  0  0  0  0  0  0  0  0
   61.1090   79.4820   34.7190 C   0  0  0  0  0  0  0  0  0  0  0  0
   60.3910   80.3060   35.7210 N   0  0  0  0  0  0  0  0  0  0  0  0
   61.1280   81.5300   36.0300 C   0  0  0  0  0  0  0  0  0  0  0  0
   59.0380   80.6070   35.2020 C   0  0  0  0  0  0  0  0  0  0  0  0
   58.9760   81.1710   33.7590 C   0  0  0  0  0  0  0  0  0  0  0  0
   60.4580   81.6850   30.9660 C   0  0  0  0  0  0  0  0  0  0  0  0
   60.4090   82.1590   29.6510 C   0  0  0  0  0  0  0  0  0  0  0  0
   59.4690   81.6720   28.7470 C   0  0  0  0  0  0  0  0  0  0  0  0
   58.5860   80.7090   29.2310 C   0  0  0  0  0  0  0  0  0  0  0  0
   57.5540   80.0430   28.6270 N   0  0  0  0  0  0  0  0  0  0  0  0
   55.8320   77.0550   29.5160 N   0  0  0  0  0  0  0  0  0  0  0  0
   54.8110   76.3260   29.0280 C   0  0  0  0  0  0  0  0  0  0  0  0
   53.8390   76.8290   28.1910 C   0  0  0  0  0  0  0  0  0  0  0  0
   52.7450   75.9900   27.6490 C   0  0  0  0  0  0  0  0  0  0  0  0
   52.5920   76.1130   26.3020 F   0  0  0  0  0  0  0  0  0  0  0  0
   51.5300   76.2690   28.1980 F   0  0  0  0  0  0  0  0  0  0  0  0
   52.9400   74.6570   27.8700 F   0  0  0  0  0  0  0  0  0  0  0  0
   52.3674   80.8678   24.0942 H   0  0  0  0  0  0  0  0  0  0  0  0
   53.6233   80.3126   22.9362 H   0  0  0  0  0  0  0  0  0  0  0  0
   51.9993   79.5449   22.9362 H   0  0  0  0  0  0  0  0  0  0  0  0
   52.4566   78.2474   24.7742 H   0  0  0  0  0  0  0  0  0  0  0  0
   54.8340   79.0170   23.4200 H   0  0  0  0  0  0  0  0  0  0  0  0
   54.6911   79.6536   26.0107 H   0  0  0  0  0  0  0  0  0  0  0  0
   52.8458   81.1099   27.2938 H   0  0  0  0  0  0  0  0  0  0  0  0
   53.5503   81.7152   25.7564 H   0  0  0  0  0  0  0  0  0  0  0  0
   51.9343   80.9310   25.7564 H   0  0  0  0  0  0  0  0  0  0  0  0
   61.5751   79.3064   32.6015 H   0  0  0  0  0  0  0  0  0  0  0  0
   61.6670   80.9844   33.2535 H   0  0  0  0  0  0  0  0  0  0  0  0
   60.6410   78.4867   34.7002 H   0  0  0  0  0  0  0  0  0  0  0  0
   62.1623   79.4698   35.0358 H   0  0  0  0  0  0  0  0  0  0  0  0
   61.1998   81.6492   37.1212 H   0  0  0  0  0  0  0  0  0  0  0  0
   62.1388   81.4676   35.6007 H   0  0  0  0  0  0  0  0  0  0  0  0
   60.6000   82.3942   35.6007 H   0  0  0  0  0  0  0  0  0  0  0  0
   58.4532   79.6756   35.2252 H   0  0  0  0  0  0  0  0  0  0  0  0
   58.6410   81.4025   35.8497 H   0  0  0  0  0  0  0  0  0  0  0  0
   57.9251   81.2331   33.4399 H   0  0  0  0  0  0  0  0  0  0  0  0
   59.4364   82.1700   33.7484 H   0  0  0  0  0  0  0  0  0  0  0  0
   61.2129   82.1057   31.6465 H   0  0  0  0  0  0  0  0  0  0  0  0
   61.1245   82.9287   29.3260 H   0  0  0  0  0  0  0  0  0  0  0  0
   59.4257   82.0281   27.7071 H   0  0  0  0  0  0  0  0  0  0  0  0
   57.2430   80.1280   27.6660 H   0  0  0  0  0  0  0  0  0  0  0  0
   54.7490   75.2658   29.3145 H   0  0  0  0  0  0  0  0  0  0  0  0
  1  2  1  0
  2  3  1  0
  2  4  1  0
  4  5  1  0
  4  6  1  0
  6  7  1  0
  7  8  2  0
  8  9  1  0
  9 10  1  0
 10 11  2  0
 11 12  1  0
 12 13  2  0
 13 14  1  0
 14 15  1  0
 15 16  1  0
 16 17  1  0
 17 18  1  0
 17 19  1  0
 19 20  1  0
 13 21  1  0
 21 22  2  0
 22 23  1  0
 23 24  2  0
 24 25  1  0
  9 26  2  0
 26 27  1  0
 27 28  2  0
 28 29  1  0
 29 30  1  0
 29 31  1  0
 29 32  1  0
 28  7  1  0
 25 10  1  0
 24 12  1  0
 20 14  1  0
  1 33  1  0
  1 34  1  0
  1 35  1  0
  2 36  1  1
  3 37  1  0
  4 38  1  1
  5 39  1  0
  5 40  1  0
  5 41  1  0
 15 42  1  0
 15 43  1  0
 16 44  1  0
 16 45  1  0
 18 46  1  0
 18 47  1  0
 18 48  1  0
 19 49  1  0
 19 50  1  0
 20 51  1  0
 20 52  1  0
 21 53  1  0
 22 54  1  0
 23 55  1  0
 25 56  1  0
 27 57  1  0
M  END
>  <meeko>  (1) 
{"is_sidechain": false}

>  <smiles>  (1) 
C[C@@H](O)[C@@H](C)Oc1nc(-c2nc3c(N4CCN(C)CC4)cccc3[nH]2)ncc1C(F)(F)F

>  <vina_score>  (1) 
-8.094

>  <job_id>  (1) 
25295a85624d0ef0

$$$$
