
     RDKit          3D

 39 40  0  0  0  0  0  0  0  0999 V2000
   61.1980   85.1030   32.1720 C   0  0  0  0  0  0  0  0  0  0  0  0
   62.0690   83.9310   32.6040 C   0  0  0  0  0  0  0  0  0  0  0  0
   62.2080   82.9180   31.5490 N   0  0  0  0  0  0  0  0  0  0  0  0
   63.4390   82.8700   30.8900 C   0  0  0  0  0  0  0  0  0  0  0  0
   64.3830   81.7300   31.1950 C   0  0  0  0  0  0  0  0  0  0  0  0
   63.8140   83.7620   30.1230 O   0  0  0  0  0  0  0  0  0  0  0  0
   61.0520   82.1530   31.1990 C   0  0  0  0  0  0  0  0  0  0  0  0
   60.3910   81.3560   32.1410 C   0  0  0  0  0  0  0  0  0  0  0  0
   59.2690   80.5930   31.7900 C   0  0  0  0  0  0  0  0  0  0  0  0
   58.7870   80.5990   30.4830 C   0  0  0  0  0  0  0  0  0  0  0  0
   57.6610   79.8690   30.0510 N   0  0  0  0  0  0  0  0  0  0  0  0
   57.5460   79.1060   28.9020 C   0  0  0  0  0  0  0  0  0  0  0  0
   58.3820   78.9800   28.0160 O   0  0  0  0  0  0  0  0  0  0  0  0
   56.2370   78.4110   28.7420 C   0  0  0  0  0  0  0  0  0  0  0  0
   55.3030   78.9450   27.8470 C   0  0  0  0  0  0  0  0  0  0  0  0
   54.0660   78.3230   27.6720 C   0  0  0  0  0  0  0  0  0  0  0  0
   53.7630   77.1620   28.3830 C   0  0  0  0  0  0  0  0  0  0  0  0
   54.6980   76.6150   29.2620 C   0  0  0  0  0  0  0  0  0  0  0  0
   55.9370   77.2340   29.4420 C   0  0  0  0  0  0  0  0  0  0  0  0
   59.4520   81.3770   29.5310 C   0  0  0  0  0  0  0  0  0  0  0  0
   60.5760   82.1350   29.8830 C   0  0  0  0  0  0  0  0  0  0  0  0
   60.8128   85.6213   33.0625 H   0  0  0  0  0  0  0  0  0  0  0  0
   61.7969   85.8029   31.5707 H   0  0  0  0  0  0  0  0  0  0  0  0
   60.3552   84.7314   31.5707 H   0  0  0  0  0  0  0  0  0  0  0  0
   63.0684   84.3103   32.8635 H   0  0  0  0  0  0  0  0  0  0  0  0
   61.5832   83.4522   33.4670 H   0  0  0  0  0  0  0  0  0  0  0  0
   64.4785   81.6146   32.2848 H   0  0  0  0  0  0  0  0  0  0  0  0
   63.9870   80.8000   30.7611 H   0  0  0  0  0  0  0  0  0  0  0  0
   65.3706   81.9456   30.7611 H   0  0  0  0  0  0  0  0  0  0  0  0
   60.7594   81.3280   33.1771 H   0  0  0  0  0  0  0  0  0  0  0  0
   58.7641   79.9835   32.5539 H   0  0  0  0  0  0  0  0  0  0  0  0
   56.8270   79.9710   30.6160 H   0  0  0  0  0  0  0  0  0  0  0  0
   55.5443   79.8565   27.2805 H   0  0  0  0  0  0  0  0  0  0  0  0
   53.3302   78.7483   26.9736 H   0  0  0  0  0  0  0  0  0  0  0  0
   52.7848   76.6767   28.2504 H   0  0  0  0  0  0  0  0  0  0  0  0
   54.4590   75.6943   29.8144 H   0  0  0  0  0  0  0  0  0  0  0  0
   56.6756   76.7990   30.1314 H   0  0  0  0  0  0  0  0  0  0  0  0
   59.0883   81.3942   28.4930 H   0  0  0  0  0  0  0  0  0  0  0  0
   61.0931   82.7258   29.1125 H   0  0  0  0  0  0  0  0  0  0  0  0
  1  2  1  0
  2  3  1  0
  3  4  1  0
  4  5  1  0
  4  6  2  0
  3  7  1  0
  7  8  1  0
  8  9  2  0
  9 10  1  0
 10 11  1  0
 11 12  1  0
 12 13  2  0
 12 14  1  0
 14 15  2  0
 15 16  1  0
 16 17  2  0
 17 18  1  0
 18 19  2  0
 10 20  2  0
 20 21  1  0
 21  7  2  0
 19 14  1  0
  1 22  1  0
  1 23  1  0
  1 24  1  0
  2 25  1  0
  2 26  1  0
  5 27  1  0
  5 28  1  0
  5 29  1  0
  8 30  1  0
  9 31  1  0
 11 32  1  0
 15 33  1  0
 16 34  1  0
 17 35  1  0
 18 36  1  0
 19 37  1  0
 20 38  1  0
 21 39  1  0
M  END
>  <meeko>  (1) 
{"is_sidechain": false}

>  <smiles>  (1) 
CCN(C(C)=O)c1ccc(NC(=O)c2ccccc2)cc1

>  <vina_score>  (1) 
-6.926

>  <job_id>  (1) 
25c144e0a9f228e4

$$$$
