
     RDKit          3D

 46 48  0  0  0  0  0  0  0  0999 V2000
   53.3110   83.5310   26.1960 C   0  0  0  0  0  0  0  0  0  0  0  0
   53.0060   82.1700   26.4640 O   0  0  0  0  0  0  0  0  0  0  0  0
   52.8280   81.3300   25.3910 C   0  0  0  0  0  0  0  0  0  0  0  0
   51.8690   81.5330   24.3890 C   0  0  0  0  0  0  0  0  0  0  0  0
   51.7410   80.6270   23.3340 C   0  0  0  0  0  0  0  0  0  0  0  0
   52.5680   79.5130   23.2670 C   0  0  0  0  0  0  0  0  0  0  0  0
   53.5280   79.3030   24.2570 C   0  0  0  0  0  0  0  0  0  0  0  0
   53.6780   80.2020   25.3310 C   0  0  0  0  0  0  0  0  0  0  0  0
   54.7120   79.9340   26.3480 C   0  0  0  0  0  0  0  0  0  0  0  0
   55.9380   80.6190   26.3350 C   0  0  0  0  0  0  0  0  0  0  0  0
   56.9270   80.3560   27.2900 C   0  0  0  0  0  0  0  0  0  0  0  0
   56.7120   79.3930   28.2850 C   0  0  0  0  0  0  0  0  0  0  0  0
   57.7710   79.0850   29.3160 C   0  0  0  0  0  0  0  0  0  0  0  0
   58.3160   80.2820   29.9720 N   0  0  0  0  0  0  0  0  0  0  0  0
   59.6450   80.6330   29.4750 C   0  0  0  0  0  0  0  0  0  0  0  0
   60.0420   82.1100   29.5160 C   0  0  0  0  0  0  0  0  0  0  0  0
   60.4480   82.6750   30.8890 C   0  0  0  0  0  0  0  0  0  0  0  0
   59.4970   82.4190   31.9630 N   0  0  0  0  0  0  0  0  0  0  0  0
   59.2630   80.9940   32.2610 C   0  0  0  0  0  0  0  0  0  0  0  0
   58.1880   80.2350   31.4390 C   0  0  0  0  0  0  0  0  0  0  0  0
   55.4920   78.7130   28.2970 C   0  0  0  0  0  0  0  0  0  0  0  0
   55.2430   77.7970   29.2440 F   0  0  0  0  0  0  0  0  0  0  0  0
   54.5050   78.9740   27.3480 C   0  0  0  0  0  0  0  0  0  0  0  0
   53.4325   84.0733   27.1453 H   0  0  0  0  0  0  0  0  0  0  0  0
   54.2448   83.5905   25.6176 H   0  0  0  0  0  0  0  0  0  0  0  0
   52.4919   83.9833   25.6176 H   0  0  0  0  0  0  0  0  0  0  0  0
   51.2115   82.4137   24.4341 H   0  0  0  0  0  0  0  0  0  0  0  0
   50.9836   80.7959   22.5544 H   0  0  0  0  0  0  0  0  0  0  0  0
   52.4663   78.7991   22.4364 H   0  0  0  0  0  0  0  0  0  0  0  0
   54.1800   78.4190   24.1979 H   0  0  0  0  0  0  0  0  0  0  0  0
   56.1246   81.3766   25.5596 H   0  0  0  0  0  0  0  0  0  0  0  0
   57.8779   80.9081   27.2593 H   0  0  0  0  0  0  0  0  0  0  0  0
   57.3286   78.4366   30.0866 H   0  0  0  0  0  0  0  0  0  0  0  0
   58.6041   78.5974   28.7885 H   0  0  0  0  0  0  0  0  0  0  0  0
   60.3799   80.0766   30.0753 H   0  0  0  0  0  0  0  0  0  0  0  0
   59.6236   80.3759   28.4057 H   0  0  0  0  0  0  0  0  0  0  0  0
   60.8940   82.2460   28.8336 H   0  0  0  0  0  0  0  0  0  0  0  0
   59.1349   82.6629   29.2308 H   0  0  0  0  0  0  0  0  0  0  0  0
   61.4118   82.2264   31.1718 H   0  0  0  0  0  0  0  0  0  0  0  0
   60.4943   83.7677   30.7717 H   0  0  0  0  0  0  0  0  0  0  0  0
   58.6060   82.8670   31.7570 H   0  0  0  0  0  0  0  0  0  0  0  0
   60.2180   80.4692   32.1105 H   0  0  0  0  0  0  0  0  0  0  0  0
   58.8682   80.9938   33.2877 H   0  0  0  0  0  0  0  0  0  0  0  0
   58.2225   79.1781   31.7421 H   0  0  0  0  0  0  0  0  0  0  0  0
   57.2409   80.7484   31.6613 H   0  0  0  0  0  0  0  0  0  0  0  0
   53.5546   78.4213   27.3842 H   0  0  0  0  0  0  0  0  0  0  0  0
  1  2  1  0
  2  3  1  0
  3  4  2  0
  4  5  1  0
  5  6  2  0
  6  7  1  0
  7  8  2  0
  8  9  1  0
  9 10  1  0
 10 11  2  0
 11 12  1  0
 12 13  1  0
 13 14  1  0
 14 15  1  0
 15 16  1  0
 16 17  1  0
 17 18  1  0
 18 19  1  0
 19 20  1  0
 12 21  2  0
 21 22  1  0
 21 23  1  0
  8  3  1  0
 23  9  2  0
 20 14  1  0
  1 24  1  0
  1 25  1  0
  1 26  1  0
  4 27  1  0
  5 28  1  0
  6 29  1  0
  7 30  1  0
 10 31  1  0
 11 32  1  0
 13 33  1  0
 13 34  1  0
 15 35  1  0
 15 36  1  0
 16 37  1  0
 16 38  1  0
 17 39  1  0
 17 40  1  0
 18 41  1  0
 19 42  1  0
 19 43  1  0
 20 44  1  0
 20 45  1  0
 23 46  1  0
M  END
>  <meeko>  (1) 
{"is_sidechain": false}

>  <smiles>  (1) 
COc1ccccc1-c1ccc(CN2CCCNCC2)c(F)c1

>  <vina_score>  (1) 
-5.810

>  <job_id>  (1) 
2625199b6d12e1fb

$$$$
