
     RDKit          3D

 39 40  0  0  0  0  0  0  0  0999 V2000
   58.1850   78.4190   28.0200 C   0  0  0  0  0  0  0  0  0  0  0  0
   57.3080   79.2240   28.9820 C   0  0  0  0  0  0  0  0  0  0  0  0
   58.1790   79.8430   30.0780 C   0  0  0  0  0  0  0  0  0  0  0  0
   56.2030   78.3590   29.6190 C   0  0  0  0  0  0  0  0  0  0  0  0
   55.0830   78.0280   28.6650 C   0  0  0  0  0  0  0  0  0  0  0  0
   54.7490   78.8880   27.6390 C   0  0  0  0  0  0  0  0  0  0  0  0
   53.7060   78.5010   26.8180 C   0  0  0  0  0  0  0  0  0  0  0  0
   53.2320   79.3210   25.6850 C   0  0  0  0  0  0  0  0  0  0  0  0
   53.3150   78.8310   24.3650 C   0  0  0  0  0  0  0  0  0  0  0  0
   52.8780   79.5870   23.2740 C   0  0  0  0  0  0  0  0  0  0  0  0
   52.3300   80.8500   23.4950 C   0  0  0  0  0  0  0  0  0  0  0  0
   51.7710   81.8220   22.1220 S   0  0  0  0  0  0  0  0  0  0  0  0
   50.1550   81.3570   22.0190 N   0  0  0  0  0  0  0  0  0  0  0  0
   51.8100   83.2140   22.5020 O   0  0  0  0  0  0  0  0  0  0  0  0
   52.4000   81.3260   20.9200 O   0  0  0  0  0  0  0  0  0  0  0  0
   52.2370   81.3680   24.7870 C   0  0  0  0  0  0  0  0  0  0  0  0
   52.6810   80.6040   25.8710 C   0  0  0  0  0  0  0  0  0  0  0  0
   53.0530   77.3330   27.0030 N   0  0  0  0  0  0  0  0  0  0  0  0
   53.4570   76.5580   28.0090 C   0  0  0  0  0  0  0  0  0  0  0  0
   52.7820   75.3730   28.2140 N   0  0  0  0  0  0  0  0  0  0  0  0
   54.4340   76.8630   28.8650 N   0  0  0  0  0  0  0  0  0  0  0  0
   58.8753   77.7854   28.5962 H   0  0  0  0  0  0  0  0  0  0  0  0
   57.5477   77.7849   27.3862 H   0  0  0  0  0  0  0  0  0  0  0  0
   58.7623   79.1082   27.3862 H   0  0  0  0  0  0  0  0  0  0  0  0
   56.8146   80.0168   28.4006 H   0  0  0  0  0  0  0  0  0  0  0  0
   57.7824   79.5611   31.0645 H   0  0  0  0  0  0  0  0  0  0  0  0
   59.2106   79.4743   29.9785 H   0  0  0  0  0  0  0  0  0  0  0  0
   58.1700   80.9385   29.9785 H   0  0  0  0  0  0  0  0  0  0  0  0
   56.6535   77.4185   29.9689 H   0  0  0  0  0  0  0  0  0  0  0  0
   55.7676   78.9411   30.4446 H   0  0  0  0  0  0  0  0  0  0  0  0
   55.2861   79.8350   27.4819 H   0  0  0  0  0  0  0  0  0  0  0  0
   53.7340   77.8291   24.1900 H   0  0  0  0  0  0  0  0  0  0  0  0
   52.9654   79.1900   22.2519 H   0  0  0  0  0  0  0  0  0  0  0  0
   50.0710   80.3910   22.3390 H   0  0  0  0  0  0  0  0  0  0  0  0
   49.5240   81.9800   22.5200 H   0  0  0  0  0  0  0  0  0  0  0  0
   51.8170   82.3712   24.9521 H   0  0  0  0  0  0  0  0  0  0  0  0
   52.5983   81.0130   26.8888 H   0  0  0  0  0  0  0  0  0  0  0  0
   52.3090   75.0990   27.3650 H   0  0  0  0  0  0  0  0  0  0  0  0
   52.2270   75.4430   29.0560 H   0  0  0  0  0  0  0  0  0  0  0  0
  1  2  1  0
  2  3  1  0
  2  4  1  0
  4  5  1  0
  5  6  1  0
  6  7  2  0
  7  8  1  0
  8  9  1  0
  9 10  2  0
 10 11  1  0
 11 12  1  0
 12 13  1  0
 12 14  2  0
 12 15  2  0
 11 16  2  0
 16 17  1  0
  7 18  1  0
 18 19  2  0
 19 20  1  0
 19 21  1  0
 21  5  2  0
 17  8  2  0
  1 22  1  0
  1 23  1  0
  1 24  1  0
  2 25  1  0
  3 26  1  0
  3 27  1  0
  3 28  1  0
  4 29  1  0
  4 30  1  0
  6 31  1  0
  9 32  1  0
 10 33  1  0
 13 34  1  0
 13 35  1  0
 16 36  1  0
 17 37  1  0
 20 38  1  0
 20 39  1  0
M  END
>  <meeko>  (1) 
{"is_sidechain": false}

>  <smiles>  (1) 
CC(C)Cc1cc(-c2ccc(S(N)(=O)=O)cc2)nc(N)n1

>  <vina_score>  (1) 
-7.938

>  <job_id>  (1) 
262858018697d5b0

$$$$
