
     RDKit          3D

 48 50  0  0  0  0  0  0  0  0999 V2000
   51.8100   75.7300   26.8660 C   0  0  0  0  0  0  0  0  0  0  0  0
   52.8640   76.8100   26.8850 C   0  0  0  0  0  0  0  0  0  0  0  0
   52.9350   77.6300   25.9770 O   0  0  0  0  0  0  0  0  0  0  0  0
   53.6520   76.7510   28.0200 N   0  0  0  0  0  0  0  0  0  0  0  0
   54.7270   77.5960   28.3630 C   0  0  0  0  0  0  0  0  0  0  0  0
   55.4430   77.2840   29.5210 C   0  0  0  0  0  0  0  0  0  0  0  0
   56.5250   78.0760   29.9280 C   0  0  0  0  0  0  0  0  0  0  0  0
   56.9280   79.2070   29.1970 C   0  0  0  0  0  0  0  0  0  0  0  0
   58.0700   80.0320   29.6480 C   0  0  0  0  0  0  0  0  0  0  0  0
   58.9360   80.6790   28.7700 C   0  0  0  0  0  0  0  0  0  0  0  0
   59.9880   81.4380   29.2810 C   0  0  0  0  0  0  0  0  0  0  0  0
   60.1620   81.5450   30.6610 C   0  0  0  0  0  0  0  0  0  0  0  0
   59.2570   80.8720   31.4770 C   0  0  0  0  0  0  0  0  0  0  0  0
   58.2250   80.1380   30.9930 N   0  0  0  0  0  0  0  0  0  0  0  0
   59.3680   80.9750   32.9710 C   0  0  0  0  0  0  0  0  0  0  0  0
   60.8060   81.2430   33.3900 C   0  0  0  0  0  0  0  0  0  0  0  0
   61.3570   82.4020   32.6880 N   0  0  0  0  0  0  0  0  0  0  0  0
   62.3010   83.1740   33.3670 C   0  0  0  0  0  0  0  0  0  0  0  0
   62.0320   83.7360   34.4300 O   0  0  0  0  0  0  0  0  0  0  0  0
   63.6750   83.3600   32.7130 C   0  0  0  0  0  0  0  0  0  0  0  0
   64.5350   82.1070   32.8900 C   0  0  0  0  0  0  0  0  0  0  0  0
   64.3850   84.5650   33.3290 C   0  0  0  0  0  0  0  0  0  0  0  0
   61.3020   82.3480   31.2260 C   0  0  0  0  0  0  0  0  0  0  0  0
   56.2020   79.4980   28.0290 C   0  0  0  0  0  0  0  0  0  0  0  0
   55.1170   78.7060   27.6190 C   0  0  0  0  0  0  0  0  0  0  0  0
   51.5448   75.4583   27.8984 H   0  0  0  0  0  0  0  0  0  0  0  0
   50.9157   76.0996   26.3429 H   0  0  0  0  0  0  0  0  0  0  0  0
   52.2013   74.8450   26.3429 H   0  0  0  0  0  0  0  0  0  0  0  0
   53.4310   76.0270   28.6910 H   0  0  0  0  0  0  0  0  0  0  0  0
   55.1545   76.4075   30.1197 H   0  0  0  0  0  0  0  0  0  0  0  0
   57.0729   77.8058   30.8428 H   0  0  0  0  0  0  0  0  0  0  0  0
   58.7913   80.5920   27.6830 H   0  0  0  0  0  0  0  0  0  0  0  0
   60.6797   81.9516   28.5971 H   0  0  0  0  0  0  0  0  0  0  0  0
   58.7303   81.7989   33.3238 H   0  0  0  0  0  0  0  0  0  0  0  0
   59.0438   80.0221   33.4146 H   0  0  0  0  0  0  0  0  0  0  0  0
   60.8341   81.4334   34.4730 H   0  0  0  0  0  0  0  0  0  0  0  0
   61.4122   80.3616   33.1339 H   0  0  0  0  0  0  0  0  0  0  0  0
   63.5265   83.5328   31.6368 H   0  0  0  0  0  0  0  0  0  0  0  0
   64.6732   81.9056   33.9625 H   0  0  0  0  0  0  0  0  0  0  0  0
   64.0345   81.2490   32.4174 H   0  0  0  0  0  0  0  0  0  0  0  0
   65.5156   82.2655   32.4174 H   0  0  0  0  0  0  0  0  0  0  0  0
   64.3431   84.4940   34.4259 H   0  0  0  0  0  0  0  0  0  0  0  0
   65.4353   84.5782   33.0022 H   0  0  0  0  0  0  0  0  0  0  0  0
   63.8876   85.4901   33.0022 H   0  0  0  0  0  0  0  0  0  0  0  0
   61.2132   83.3778   30.8498 H   0  0  0  0  0  0  0  0  0  0  0  0
   62.2238   81.8423   30.9025 H   0  0  0  0  0  0  0  0  0  0  0  0
   56.4909   80.3679   27.4208 H   0  0  0  0  0  0  0  0  0  0  0  0
   54.5699   78.9655   26.7007 H   0  0  0  0  0  0  0  0  0  0  0  0
  1  2  1  0
  2  3  2  0
  2  4  1  0
  4  5  1  0
  5  6  1  0
  6  7  2  0
  7  8  1  0
  8  9  1  0
  9 10  1  0
 10 11  2  0
 11 12  1  0
 12 13  2  0
 13 14  1  0
 13 15  1  0
 15 16  1  0
 16 17  1  0
 17 18  1  0
 18 19  2  0
 18 20  1  0
 20 21  1  0
 20 22  1  0
 17 23  1  0
  8 24  2  0
 24 25  1  0
 25  5  2  0
 14  9  2  0
 23 12  1  0
  1 26  1  0
  1 27  1  0
  1 28  1  0
  4 29  1  0
  6 30  1  0
  7 31  1  0
 10 32  1  0
 11 33  1  0
 15 34  1  0
 15 35  1  0
 16 36  1  0
 16 37  1  0
 20 38  1  0
 21 39  1  0
 21 40  1  0
 21 41  1  0
 22 42  1  0
 22 43  1  0
 22 44  1  0
 23 45  1  0
 23 46  1  0
 24 47  1  0
 25 48  1  0
M  END
>  <meeko>  (1) 
{"is_sidechain": false}

>  <smiles>  (1) 
CC(=O)Nc1ccc(-c2ccc3c(n2)CCN(C(=O)C(C)C)C3)cc1

>  <vina_score>  (1) 
-7.811

>  <job_id>  (1) 
265edcf207e2badf

$$$$
