
     RDKit          3D

 40 43  0  0  0  0  0  0  0  0999 V2000
   56.4190   81.6310   26.6550 C   0  0  0  0  0  0  0  0  0  0  0  0
   55.1850   80.9660   26.3090 N   0  0  0  0  0  0  0  0  0  0  0  0
   54.4130   81.4860   25.3320 N   0  0  0  0  0  0  0  0  0  0  0  0
   53.3400   80.6740   25.2560 C   0  0  0  0  0  0  0  0  0  0  0  0
   52.2520   80.9480   24.3050 C   0  0  0  0  0  0  0  0  0  0  0  0
   52.6460   81.2230   23.0190 N   0  0  0  0  0  0  0  0  0  0  0  0
   51.0590   80.9820   24.5930 O   0  0  0  0  0  0  0  0  0  0  0  0
   53.4650   79.6110   26.1930 C   0  0  0  0  0  0  0  0  0  0  0  0
   54.6630   79.8300   26.8490 C   0  0  0  0  0  0  0  0  0  0  0  0
   55.1640   78.9780   27.9120 C   0  0  0  0  0  0  0  0  0  0  0  0
   56.2280   79.4010   28.6110 N   0  0  0  0  0  0  0  0  0  0  0  0
   56.6520   78.5980   29.6000 C   0  0  0  0  0  0  0  0  0  0  0  0
   57.7500   79.0690   30.3070 N   0  0  0  0  0  0  0  0  0  0  0  0
   58.5310   80.2300   30.2470 C   0  0  0  0  0  0  0  0  0  0  0  0
   59.3050   80.6030   29.1450 C   0  0  0  0  0  0  0  0  0  0  0  0
   60.0600   81.7850   29.1600 C   0  0  0  0  0  0  0  0  0  0  0  0
   60.0520   82.6160   30.2780 C   0  0  0  0  0  0  0  0  0  0  0  0
   59.2880   82.2660   31.3860 C   0  0  0  0  0  0  0  0  0  0  0  0
   58.5430   81.0890   31.3600 C   0  0  0  0  0  0  0  0  0  0  0  0
   57.8100   80.7690   32.4400 F   0  0  0  0  0  0  0  0  0  0  0  0
   56.0730   77.4210   29.8950 N   0  0  0  0  0  0  0  0  0  0  0  0
   55.0110   77.0370   29.1620 C   0  0  0  0  0  0  0  0  0  0  0  0
   54.4890   77.7920   28.1450 C   0  0  0  0  0  0  0  0  0  0  0  0
   53.3460   77.3400   27.2700 C   0  0  0  0  0  0  0  0  0  0  0  0
   52.5600   78.4930   26.5930 C   0  0  0  0  0  0  0  0  0  0  0  0
   56.5136   81.6820   27.7497 H   0  0  0  0  0  0  0  0  0  0  0  0
   57.2678   81.0682   26.2394 H   0  0  0  0  0  0  0  0  0  0  0  0
   56.4157   82.6495   26.2394 H   0  0  0  0  0  0  0  0  0  0  0  0
   53.5760   81.5870   22.8690 H   0  0  0  0  0  0  0  0  0  0  0  0
   51.9080   81.6010   22.4420 H   0  0  0  0  0  0  0  0  0  0  0  0
   58.0380   78.3900   31.0000 H   0  0  0  0  0  0  0  0  0  0  0  0
   59.3225   79.9602   28.2526 H   0  0  0  0  0  0  0  0  0  0  0  0
   60.6634   82.0580   28.2817 H   0  0  0  0  0  0  0  0  0  0  0  0
   60.6456   83.5421   30.2843 H   0  0  0  0  0  0  0  0  0  0  0  0
   59.2720   82.9130   32.2755 H   0  0  0  0  0  0  0  0  0  0  0  0
   54.5395   76.0699   29.3909 H   0  0  0  0  0  0  0  0  0  0  0  0
   53.7533   76.6917   26.4802 H   0  0  0  0  0  0  0  0  0  0  0  0
   52.6343   76.8203   27.9283 H   0  0  0  0  0  0  0  0  0  0  0  0
   52.0553   78.1034   25.6966 H   0  0  0  0  0  0  0  0  0  0  0  0
   51.8283   78.8830   27.3159 H   0  0  0  0  0  0  0  0  0  0  0  0
  1  2  1  0
  2  3  1  0
  3  4  2  0
  4  5  1  0
  5  6  1  0
  5  7  2  0
  4  8  1  0
  8  9  2  0
  9 10  1  0
 10 11  2  0
 11 12  1  0
 12 13  1  0
 13 14  1  0
 14 15  2  0
 15 16  1  0
 16 17  2  0
 17 18  1  0
 18 19  2  0
 19 20  1  0
 12 21  2  0
 21 22  1  0
 22 23  2  0
 23 24  1  0
 24 25  1  0
  9  2  1  0
 23 10  1  0
 25  8  1  0
 19 14  1  0
  1 26  1  0
  1 27  1  0
  1 28  1  0
  6 29  1  0
  6 30  1  0
 13 31  1  0
 15 32  1  0
 16 33  1  0
 17 34  1  0
 18 35  1  0
 22 36  1  0
 24 37  1  0
 24 38  1  0
 25 39  1  0
 25 40  1  0
M  END
>  <meeko>  (1) 
{"is_sidechain": false}

>  <smiles>  (1) 
Cn1nc(C(N)=O)c2c1-c1nc(Nc3ccccc3F)ncc1CC2

>  <vina_score>  (1) 
-8.654

>  <job_id>  (1) 
2672b50b2a391020

$$$$
