
     RDKit          3D

 49 53  0  0  0  0  0  0  0  0999 V2000
   53.6850   80.9440   23.7630 N   0  0  0  0  0  0  0  0  0  0  0  0
   53.4270   79.6240   24.7780 S   0  0  0  0  0  0  0  0  0  0  0  0
   53.7230   78.4250   24.0310 O   0  0  0  0  0  0  0  0  0  0  0  0
   52.1450   79.8570   25.4020 O   0  0  0  0  0  0  0  0  0  0  0  0
   54.6980   79.8590   25.9910 C   0  0  0  0  0  0  0  0  0  0  0  0
   55.5160   80.9880   25.9320 C   0  0  0  0  0  0  0  0  0  0  0  0
   56.5110   81.1650   26.8980 C   0  0  0  0  0  0  0  0  0  0  0  0
   56.6970   80.2310   27.9340 C   0  0  0  0  0  0  0  0  0  0  0  0
   57.7430   80.4250   28.9510 C   0  0  0  0  0  0  0  0  0  0  0  0
   57.7510   79.6670   30.1340 C   0  0  0  0  0  0  0  0  0  0  0  0
   58.7410   79.8570   31.1060 C   0  0  0  0  0  0  0  0  0  0  0  0
   59.7360   80.8210   30.9270 C   0  0  0  0  0  0  0  0  0  0  0  0
   60.7340   81.0060   31.9040 N   0  0  0  0  0  0  0  0  0  0  0  0
   60.7140   82.0500   32.6060 N   0  0  0  0  0  0  0  0  0  0  0  0
   59.7640   83.0230   32.4840 C   0  0  0  0  0  0  0  0  0  0  0  0
   58.3190   82.8040   32.8350 C   0  0  0  0  0  0  0  0  0  0  0  0
   57.8100   81.7880   33.2700 O   0  0  0  0  0  0  0  0  0  0  0  0
   57.6730   83.9960   32.5740 N   0  0  0  0  0  0  0  0  0  0  0  0
   58.5450   84.9090   32.0920 C   0  0  0  0  0  0  0  0  0  0  0  0
   58.3310   86.1780   31.7340 C   0  0  0  0  0  0  0  0  0  0  0  0
   59.4460   86.9820   31.2450 C   0  0  0  0  0  0  0  0  0  0  0  0
   60.7010   86.4950   31.1140 C   0  0  0  0  0  0  0  0  0  0  0  0
   61.7750   87.2310   30.6450 N   0  0  0  0  0  0  0  0  0  0  0  0
   63.0250   86.6910   30.4720 C   0  0  0  0  0  0  0  0  0  0  0  0
   63.2920   85.4130   30.7740 C   0  0  0  0  0  0  0  0  0  0  0  0
   62.2240   84.5770   31.3000 C   0  0  0  0  0  0  0  0  0  0  0  0
   60.9750   85.0620   31.4850 C   0  0  0  0  0  0  0  0  0  0  0  0
   59.8520   84.2810   32.0120 C   0  0  0  0  0  0  0  0  0  0  0  0
   59.7530   81.5600   29.7420 C   0  0  0  0  0  0  0  0  0  0  0  0
   58.7650   81.3720   28.7700 C   0  0  0  0  0  0  0  0  0  0  0  0
   55.8480   79.1100   27.9750 C   0  0  0  0  0  0  0  0  0  0  0  0
   54.8500   78.9230   27.0140 C   0  0  0  0  0  0  0  0  0  0  0  0
   54.0800   80.6090   22.8820 H   0  0  0  0  0  0  0  0  0  0  0  0
   52.8490   81.5070   23.6140 H   0  0  0  0  0  0  0  0  0  0  0  0
   55.3792   81.7316   25.1330 H   0  0  0  0  0  0  0  0  0  0  0  0
   57.1608   82.0511   26.8473 H   0  0  0  0  0  0  0  0  0  0  0  0
   56.9676   78.9127   30.2992 H   0  0  0  0  0  0  0  0  0  0  0  0
   58.7351   79.2421   32.0180 H   0  0  0  0  0  0  0  0  0  0  0  0
   56.6860   84.1320   32.7350 H   0  0  0  0  0  0  0  0  0  0  0  0
   57.3233   86.6129   31.8072 H   0  0  0  0  0  0  0  0  0  0  0  0
   59.2576   88.0305   30.9708 H   0  0  0  0  0  0  0  0  0  0  0  0
   61.6140   88.1880   30.3540 H   0  0  0  0  0  0  0  0  0  0  0  0
   63.8307   87.3255   30.0741 H   0  0  0  0  0  0  0  0  0  0  0  0
   64.3020   85.0029   30.6266 H   0  0  0  0  0  0  0  0  0  0  0  0
   62.4368   83.5278   31.5527 H   0  0  0  0  0  0  0  0  0  0  0  0
   60.5514   82.2972   29.5714 H   0  0  0  0  0  0  0  0  0  0  0  0
   58.7885   81.9746   27.8500 H   0  0  0  0  0  0  0  0  0  0  0  0
   55.9716   78.3676   28.7772 H   0  0  0  0  0  0  0  0  0  0  0  0
   54.1898   78.0446   27.0642 H   0  0  0  0  0  0  0  0  0  0  0  0
  1  2  1  0
  2  3  2  0
  2  4  2  0
  2  5  1  0
  5  6  1  0
  6  7  2  0
  7  8  1  0
  8  9  1  0
  9 10  1  0
 10 11  2  0
 11 12  1  0
 12 13  1  0
 13 14  2  3
 14 15  1  0
 15 16  1  0
 16 17  2  0
 16 18  1  0
 18 19  1  0
 19 20  2  0
 20 21  1  0
 21 22  2  0
 22 23  1  0
 23 24  1  0
 24 25  2  0
 25 26  1  0
 26 27  2  0
 27 28  1  0
 12 29  2  0
 29 30  1  0
  8 31  2  0
 31 32  1  0
 32  5  2  0
 30  9  2  0
 28 15  2  0
 28 19  1  0
 27 22  1  0
  1 33  1  0
  1 34  1  0
  6 35  1  0
  7 36  1  0
 10 37  1  0
 11 38  1  0
 18 39  1  0
 20 40  1  0
 21 41  1  0
 23 42  1  0
 24 43  1  0
 25 44  1  0
 26 45  1  0
 29 46  1  0
 30 47  1  0
 31 48  1  0
 32 49  1  0
M  END
>  <meeko>  (1) 
{"is_sidechain": false}

>  <smiles>  (1) 
NS(=O)(=O)c1ccc(-c2ccc(N=Nc3c(=O)[nH]c4ccc5[nH]cccc5c34)cc2)cc1

>  <vina_score>  (1) 
-7.684

>  <job_id>  (1) 
26ae9b72632673c4

$$$$
