
     RDKit          3D

 52 55  0  0  0  0  0  0  0  0999 V2000
   52.5560   83.2240   26.0540 C   0  0  0  0  0  0  0  0  0  0  0  0
   53.2480   82.2000   25.2730 N   0  0  0  0  0  0  0  0  0  0  0  0
   52.2900   81.2730   24.6670 C   0  0  0  0  0  0  0  0  0  0  0  0
   52.8610   80.2230   23.7140 C   0  0  0  0  0  0  0  0  0  0  0  0
   53.3140   78.9500   24.4370 C   0  0  0  0  0  0  0  0  0  0  0  0
   54.3320   79.1410   25.4790 N   0  0  0  0  0  0  0  0  0  0  0  0
   53.7270   79.0990   26.7620 N   0  0  0  0  0  0  0  0  0  0  0  0
   54.2300   78.1660   27.7020 C   0  0  0  0  0  0  0  0  0  0  0  0
   53.6090   76.9370   28.0220 C   0  0  0  0  0  0  0  0  0  0  0  0
   52.1800   76.3540   27.2360 Cl  0  0  0  0  0  0  0  0  0  0  0  0
   54.1890   76.0990   28.9740 C   0  0  0  0  0  0  0  0  0  0  0  0
   55.3390   76.3280   29.6520 N   0  0  0  0  0  0  0  0  0  0  0  0
   55.9130   77.4890   29.2980 C   0  0  0  0  0  0  0  0  0  0  0  0
   57.0890   77.9450   29.8240 N   0  0  0  0  0  0  0  0  0  0  0  0
   57.4230   79.1570   29.2650 C   0  0  0  0  0  0  0  0  0  0  0  0
   58.6730   79.9120   29.6320 C   0  0  0  0  0  0  0  0  0  0  0  0
   58.6640   81.3430   29.0690 C   0  0  0  0  0  0  0  0  0  0  0  0
   59.5660   82.2520   29.8950 C   0  0  0  0  0  0  0  0  0  0  0  0
   59.1030   82.3820   31.2750 N   0  0  0  0  0  0  0  0  0  0  0  0
   58.5030   81.1710   31.8340 C   0  0  0  0  0  0  0  0  0  0  0  0
   58.9460   79.8830   31.1460 C   0  0  0  0  0  0  0  0  0  0  0  0
   56.4200   79.4730   28.3640 C   0  0  0  0  0  0  0  0  0  0  0  0
   55.4550   78.4200   28.3740 C   0  0  0  0  0  0  0  0  0  0  0  0
   55.0790   80.4030   25.3570 C   0  0  0  0  0  0  0  0  0  0  0  0
   54.3380   81.5730   26.0320 C   0  0  0  0  0  0  0  0  0  0  0  0
   52.6927   83.0218   27.1266 H   0  0  0  0  0  0  0  0  0  0  0  0
   52.9715   84.2132   25.8115 H   0  0  0  0  0  0  0  0  0  0  0  0
   51.4832   83.2074   25.8115 H   0  0  0  0  0  0  0  0  0  0  0  0
   51.7795   80.7404   25.4829 H   0  0  0  0  0  0  0  0  0  0  0  0
   51.6329   81.9002   24.0466 H   0  0  0  0  0  0  0  0  0  0  0  0
   52.0857   79.9543   22.9814 H   0  0  0  0  0  0  0  0  0  0  0  0
   53.7456   80.6615   23.2290 H   0  0  0  0  0  0  0  0  0  0  0  0
   52.4298   78.4946   24.9069 H   0  0  0  0  0  0  0  0  0  0  0  0
   53.7839   78.3182   23.6689 H   0  0  0  0  0  0  0  0  0  0  0  0
   52.7070   79.1110   26.7550 H   0  0  0  0  0  0  0  0  0  0  0  0
   53.6608   75.1600   29.1960 H   0  0  0  0  0  0  0  0  0  0  0  0
   57.6110   77.4440   30.5290 H   0  0  0  0  0  0  0  0  0  0  0  0
   59.5140   79.3881   29.1543 H   0  0  0  0  0  0  0  0  0  0  0  0
   59.0241   81.3245   28.0298 H   0  0  0  0  0  0  0  0  0  0  0  0
   57.6362   81.7328   29.1097 H   0  0  0  0  0  0  0  0  0  0  0  0
   60.5827   81.8322   29.9004 H   0  0  0  0  0  0  0  0  0  0  0  0
   59.5485   83.2520   29.4371 H   0  0  0  0  0  0  0  0  0  0  0  0
   59.8740   82.6980   31.8620 H   0  0  0  0  0  0  0  0  0  0  0  0
   58.7787   81.1076   32.8970 H   0  0  0  0  0  0  0  0  0  0  0  0
   57.4168   81.2552   31.6818 H   0  0  0  0  0  0  0  0  0  0  0  0
   60.0253   79.7468   31.3092 H   0  0  0  0  0  0  0  0  0  0  0  0
   58.3689   79.0523   31.5784 H   0  0  0  0  0  0  0  0  0  0  0  0
   56.3742   80.3813   27.7453 H   0  0  0  0  0  0  0  0  0  0  0  0
   56.0629   80.2821   25.8337 H   0  0  0  0  0  0  0  0  0  0  0  0
   55.1845   80.6363   24.2872 H   0  0  0  0  0  0  0  0  0  0  0  0
   53.9125   81.1967   26.9740 H   0  0  0  0  0  0  0  0  0  0  0  0
   55.0958   82.3619   26.1472 H   0  0  0  0  0  0  0  0  0  0  0  0
  1  2  1  0
  2  3  1  0
  3  4  1  0
  4  5  1  0
  5  6  1  0
  6  7  1  0
  7  8  1  0
  8  9  2  0
  9 10  1  0
  9 11  1  0
 11 12  2  0
 12 13  1  0
 13 14  1  0
 14 15  1  0
 15 16  1  0
 16 17  1  0
 17 18  1  0
 18 19  1  0
 19 20  1  0
 20 21  1  0
 15 22  2  0
 22 23  1  0
  6 24  1  0
 24 25  1  0
 25  2  1  0
 23  8  1  0
 23 13  2  0
 21 16  1  0
  1 26  1  0
  1 27  1  0
  1 28  1  0
  3 29  1  0
  3 30  1  0
  4 31  1  0
  4 32  1  0
  5 33  1  0
  5 34  1  0
  7 35  1  0
 11 36  1  0
 14 37  1  0
 16 38  1  0
 17 39  1  0
 17 40  1  0
 18 41  1  0
 18 42  1  0
 19 43  1  0
 20 44  1  0
 20 45  1  0
 21 46  1  0
 21 47  1  0
 22 48  1  0
 24 49  1  0
 24 50  1  0
 25 51  1  0
 25 52  1  0
M  END
>  <meeko>  (1) 
{"is_sidechain": false}

>  <smiles>  (1) 
CN1CCCN(Nc2c(Cl)cnc3[nH]c(C4CCNCC4)cc23)CC1

>  <vina_score>  (1) 
-6.633

>  <job_id>  (1) 
26beca070cc2ee1e

$$$$
