
     RDKit          3D

 44 46  0  0  0  0  0  0  0  0999 V2000
   52.9350   80.9830   23.3250 C   0  0  0  0  0  0  0  0  0  0  0  0
   52.5260   80.0430   24.3650 N   0  0  0  0  0  0  0  0  0  0  0  0
   53.3890   78.8450   24.3530 C   0  0  0  0  0  0  0  0  0  0  0  0
   53.3100   78.0000   25.6480 C   0  0  0  0  0  0  0  0  0  0  0  0
   53.6460   78.8000   26.8380 N   0  0  0  0  0  0  0  0  0  0  0  0
   54.5270   78.2910   27.7840 C   0  0  0  0  0  0  0  0  0  0  0  0
   54.1430   77.2820   28.6430 C   0  0  0  0  0  0  0  0  0  0  0  0
   55.0740   76.8540   29.5560 C   0  0  0  0  0  0  0  0  0  0  0  0
   56.3100   77.3640   29.6480 N   0  0  0  0  0  0  0  0  0  0  0  0
   56.6140   78.3560   28.8030 C   0  0  0  0  0  0  0  0  0  0  0  0
   57.8630   78.9710   28.8070 N   0  0  0  0  0  0  0  0  0  0  0  0
   58.4900   79.9010   29.6430 C   0  0  0  0  0  0  0  0  0  0  0  0
   59.3560   80.9010   29.1860 C   0  0  0  0  0  0  0  0  0  0  0  0
   59.9340   81.8240   30.0660 C   0  0  0  0  0  0  0  0  0  0  0  0
   59.6290   81.7610   31.4240 C   0  0  0  0  0  0  0  0  0  0  0  0
   60.3490   82.9280   32.5470 S   0  0  0  0  0  0  0  0  0  0  0  0
   59.6230   82.4820   34.0010 N   0  0  0  0  0  0  0  0  0  0  0  0
   61.7620   82.6520   32.6540 O   0  0  0  0  0  0  0  0  0  0  0  0
   59.8330   84.2430   32.2410 O   0  0  0  0  0  0  0  0  0  0  0  0
   58.7730   80.7750   31.9110 C   0  0  0  0  0  0  0  0  0  0  0  0
   58.2060   79.8590   31.0200 C   0  0  0  0  0  0  0  0  0  0  0  0
   55.7580   78.8310   27.8810 N   0  0  0  0  0  0  0  0  0  0  0  0
   53.6370   80.2600   26.6600 C   0  0  0  0  0  0  0  0  0  0  0  0
   52.4970   80.6790   25.7020 C   0  0  0  0  0  0  0  0  0  0  0  0
   53.3324   81.8963   23.7919 H   0  0  0  0  0  0  0  0  0  0  0  0
   53.7139   80.5221   22.6998 H   0  0  0  0  0  0  0  0  0  0  0  0
   52.0668   81.2387   22.6998 H   0  0  0  0  0  0  0  0  0  0  0  0
   53.0880   78.2101   23.5066 H   0  0  0  0  0  0  0  0  0  0  0  0
   54.4264   79.2005   24.2673 H   0  0  0  0  0  0  0  0  0  0  0  0
   52.2876   77.6091   25.7575 H   0  0  0  0  0  0  0  0  0  0  0  0
   54.0377   77.1790   25.5683 H   0  0  0  0  0  0  0  0  0  0  0  0
   53.1364   76.8406   28.5981 H   0  0  0  0  0  0  0  0  0  0  0  0
   54.7904   76.0488   30.2498 H   0  0  0  0  0  0  0  0  0  0  0  0
   58.3400   78.7250   27.9520 H   0  0  0  0  0  0  0  0  0  0  0  0
   59.5875   80.9632   28.1124 H   0  0  0  0  0  0  0  0  0  0  0  0
   60.6237   82.5931   29.6880 H   0  0  0  0  0  0  0  0  0  0  0  0
   60.2930   82.3570   34.7590 H   0  0  0  0  0  0  0  0  0  0  0  0
   59.0650   81.6400   33.8430 H   0  0  0  0  0  0  0  0  0  0  0  0
   58.5457   80.7180   32.9858 H   0  0  0  0  0  0  0  0  0  0  0  0
   57.5222   79.0879   31.4045 H   0  0  0  0  0  0  0  0  0  0  0  0
   53.4860   80.7433   27.6365 H   0  0  0  0  0  0  0  0  0  0  0  0
   54.5992   80.5730   26.2284 H   0  0  0  0  0  0  0  0  0  0  0  0
   51.5402   80.4216   26.1798 H   0  0  0  0  0  0  0  0  0  0  0  0
   52.6277   81.7573   25.5280 H   0  0  0  0  0  0  0  0  0  0  0  0
  1  2  1  0
  2  3  1  0
  3  4  1  0
  4  5  1  0
  5  6  1  0
  6  7  1  0
  7  8  2  0
  8  9  1  0
  9 10  2  0
 10 11  1  0
 11 12  1  0
 12 13  1  0
 13 14  2  0
 14 15  1  0
 15 16  1  0
 16 17  1  0
 16 18  2  0
 16 19  2  0
 15 20  2  0
 20 21  1  0
 10 22  1  0
  5 23  1  0
 23 24  1  0
 24  2  1  0
 22  6  2  0
 21 12  2  0
  1 25  1  0
  1 26  1  0
  1 27  1  0
  3 28  1  0
  3 29  1  0
  4 30  1  0
  4 31  1  0
  7 32  1  0
  8 33  1  0
 11 34  1  0
 13 35  1  0
 14 36  1  0
 17 37  1  0
 17 38  1  0
 20 39  1  0
 21 40  1  0
 23 41  1  0
 23 42  1  0
 24 43  1  0
 24 44  1  0
M  END
>  <meeko>  (1) 
{"is_sidechain": false}

>  <smiles>  (1) 
CN1CCN(c2ccnc(Nc3ccc(S(N)(=O)=O)cc3)n2)CC1

>  <vina_score>  (1) 
-8.321

>  <job_id>  (1) 
270510d68efce7b1

$$$$
