
     RDKit          3D

 40 42  0  0  0  0  0  0  0  0999 V2000
   60.6800   82.2380   32.2930 O   0  0  0  0  0  0  0  0  0  0  0  0
   60.7960   81.7640   31.1670 C   0  0  0  0  0  0  0  0  0  0  0  0
   61.9290   81.8550   30.3890 N   0  0  0  0  0  0  0  0  0  0  0  0
   63.0900   82.6160   30.6450 C   0  0  0  0  0  0  0  0  0  0  0  0
   64.2350   82.1020   31.2600 C   0  0  0  0  0  0  0  0  0  0  0  0
   65.3440   82.9220   31.4950 C   0  0  0  0  0  0  0  0  0  0  0  0
   65.3160   84.2630   31.1220 C   0  0  0  0  0  0  0  0  0  0  0  0
   64.1740   84.7800   30.5180 C   0  0  0  0  0  0  0  0  0  0  0  0
   64.1290   86.4390   30.0600 Cl  0  0  0  0  0  0  0  0  0  0  0  0
   63.0650   83.9680   30.2810 C   0  0  0  0  0  0  0  0  0  0  0  0
   59.7590   81.0540   30.5740 N   0  0  0  0  0  0  0  0  0  0  0  0
   59.6680   80.7190   29.1480 C   0  0  0  0  0  0  0  0  0  0  0  0
   58.2220   80.5280   28.6490 C   0  0  0  0  0  0  0  0  0  0  0  0
   57.5030   79.5420   29.4670 N   0  0  0  0  0  0  0  0  0  0  0  0
   56.3780   78.8830   28.9900 C   0  0  0  0  0  0  0  0  0  0  0  0
   55.6490   79.3790   27.8960 C   0  0  0  0  0  0  0  0  0  0  0  0
   54.5070   78.7320   27.4050 C   0  0  0  0  0  0  0  0  0  0  0  0
   54.0600   77.5620   28.0050 C   0  0  0  0  0  0  0  0  0  0  0  0
   54.7540   77.0460   29.0920 C   0  0  0  0  0  0  0  0  0  0  0  0
   55.8930   77.7020   29.5760 C   0  0  0  0  0  0  0  0  0  0  0  0
   57.8110   79.5170   30.9120 C   0  0  0  0  0  0  0  0  0  0  0  0
   58.5600   80.7810   31.3700 C   0  0  0  0  0  0  0  0  0  0  0  0
   62.0090   81.1620   29.6620 H   0  0  0  0  0  0  0  0  0  0  0  0
   64.2645   81.0446   31.5616 H   0  0  0  0  0  0  0  0  0  0  0  0
   66.2413   82.5056   31.9762 H   0  0  0  0  0  0  0  0  0  0  0  0
   66.1886   84.9079   31.3031 H   0  0  0  0  0  0  0  0  0  0  0  0
   62.1674   84.3912   29.8064 H   0  0  0  0  0  0  0  0  0  0  0  0
   60.1307   81.5323   28.5697 H   0  0  0  0  0  0  0  0  0  0  0  0
   60.1863   79.7588   29.0089 H   0  0  0  0  0  0  0  0  0  0  0  0
   57.6940   81.4915   28.7021 H   0  0  0  0  0  0  0  0  0  0  0  0
   58.2570   80.1612   27.6125 H   0  0  0  0  0  0  0  0  0  0  0  0
   55.9859   80.3059   27.4088 H   0  0  0  0  0  0  0  0  0  0  0  0
   53.9647   79.1508   26.5445 H   0  0  0  0  0  0  0  0  0  0  0  0
   53.1651   77.0489   27.6231 H   0  0  0  0  0  0  0  0  0  0  0  0
   54.4082   76.1197   29.5740 H   0  0  0  0  0  0  0  0  0  0  0  0
   56.4241   77.2794   30.4416 H   0  0  0  0  0  0  0  0  0  0  0  0
   56.8682   79.4411   31.4737 H   0  0  0  0  0  0  0  0  0  0  0  0
   58.4623   78.6514   31.1030 H   0  0  0  0  0  0  0  0  0  0  0  0
   57.8799   81.6415   31.2863 H   0  0  0  0  0  0  0  0  0  0  0  0
   58.8842   80.6143   32.4079 H   0  0  0  0  0  0  0  0  0  0  0  0
  1  2  2  0
  2  3  1  0
  3  4  1  0
  4  5  2  0
  5  6  1  0
  6  7  2  0
  7  8  1  0
  8  9  1  0
  8 10  2  0
  2 11  1  0
 11 12  1  0
 12 13  1  0
 13 14  1  0
 14 15  1  0
 15 16  2  0
 16 17  1  0
 17 18  2  0
 18 19  1  0
 19 20  2  0
 14 21  1  0
 21 22  1  0
 10  4  1  0
 22 11  1  0
 20 15  1  0
  3 23  1  0
  5 24  1  0
  6 25  1  0
  7 26  1  0
 10 27  1  0
 12 28  1  0
 12 29  1  0
 13 30  1  0
 13 31  1  0
 16 32  1  0
 17 33  1  0
 18 34  1  0
 19 35  1  0
 20 36  1  0
 21 37  1  0
 21 38  1  0
 22 39  1  0
 22 40  1  0
M  END
>  <meeko>  (1) 
{"is_sidechain": false}

>  <smiles>  (1) 
O=C(Nc1cccc(Cl)c1)N1CCN(c2ccccc2)CC1

>  <vina_score>  (1) 
-7.115

>  <job_id>  (1) 
276edc7f1d3041c8

$$$$
