
     RDKit          3D

 45 48  0  0  0  0  0  0  0  0999 V2000
   54.5700   79.8300   28.0230 O   0  0  0  0  0  0  0  0  0  0  0  0
   55.0280   78.7150   28.2440 C   0  0  0  0  0  0  0  0  0  0  0  0
   56.2740   78.4120   28.7300 N   0  0  0  0  0  0  0  0  0  0  0  0
   57.2470   79.3220   29.1140 C   0  0  0  0  0  0  0  0  0  0  0  0
   57.8010   79.9840   28.0860 N   0  0  0  0  0  0  0  0  0  0  0  0
   58.7610   80.8750   28.3950 C   0  0  0  0  0  0  0  0  0  0  0  0
   59.1930   81.1190   29.6800 C   0  0  0  0  0  0  0  0  0  0  0  0
   58.5500   80.4020   30.6730 C   0  0  0  0  0  0  0  0  0  0  0  0
   57.5890   79.4960   30.3920 N   0  0  0  0  0  0  0  0  0  0  0  0
   58.9090   80.5870   32.1310 C   0  0  0  0  0  0  0  0  0  0  0  0
   59.9260   81.6160   32.3920 N   0  0  0  0  0  0  0  0  0  0  0  0
   60.1210   81.9780   33.7310 C   0  0  0  0  0  0  0  0  0  0  0  0
   60.0730   83.1670   34.0690 O   0  0  0  0  0  0  0  0  0  0  0  0
   60.4070   80.8430   34.7510 C   0  0  0  0  0  0  0  0  0  0  0  0
   61.5960   79.8830   34.4440 C   0  0  0  0  0  0  0  0  0  0  0  0
   61.8710   79.8410   35.9570 C   0  0  0  0  0  0  0  0  0  0  0  0
   61.1850   81.2170   36.0460 C   0  0  0  0  0  0  0  0  0  0  0  0
   60.9160   81.8330   31.3400 C   0  0  0  0  0  0  0  0  0  0  0  0
   60.2440   82.1330   30.0000 C   0  0  0  0  0  0  0  0  0  0  0  0
   54.1790   77.5310   27.9250 C   0  0  0  0  0  0  0  0  0  0  0  0
   54.1680   76.3860   28.7340 C   0  0  0  0  0  0  0  0  0  0  0  0
   53.3560   75.3000   28.3950 C   0  0  0  0  0  0  0  0  0  0  0  0
   52.5490   75.3570   27.2590 C   0  0  0  0  0  0  0  0  0  0  0  0
   52.5440   76.5020   26.4610 C   0  0  0  0  0  0  0  0  0  0  0  0
   53.3520   77.5890   26.7960 C   0  0  0  0  0  0  0  0  0  0  0  0
   56.5980   77.4610   28.7760 H   0  0  0  0  0  0  0  0  0  0  0  0
   59.2272   81.4406   27.5748 H   0  0  0  0  0  0  0  0  0  0  0  0
   57.9944   80.8645   32.6756 H   0  0  0  0  0  0  0  0  0  0  0  0
   59.3423   79.6329   32.4656 H   0  0  0  0  0  0  0  0  0  0  0  0
   59.3625   80.4987   34.7722 H   0  0  0  0  0  0  0  0  0  0  0  0
   61.3038   78.9179   34.0046 H   0  0  0  0  0  0  0  0  0  0  0  0
   62.3816   80.1500   33.7219 H   0  0  0  0  0  0  0  0  0  0  0  0
   61.3534   79.0338   36.4959 H   0  0  0  0  0  0  0  0  0  0  0  0
   62.8804   79.6687   36.3588 H   0  0  0  0  0  0  0  0  0  0  0  0
   60.5532   81.3571   36.9355 H   0  0  0  0  0  0  0  0  0  0  0  0
   61.7665   82.1477   36.1211 H   0  0  0  0  0  0  0  0  0  0  0  0
   61.5551   82.6837   31.6190 H   0  0  0  0  0  0  0  0  0  0  0  0
   61.5146   80.9165   31.2314 H   0  0  0  0  0  0  0  0  0  0  0  0
   59.7786   83.1286   30.0475 H   0  0  0  0  0  0  0  0  0  0  0  0
   61.0106   82.0988   29.2119 H   0  0  0  0  0  0  0  0  0  0  0  0
   54.7979   76.3424   29.6348 H   0  0  0  0  0  0  0  0  0  0  0  0
   53.3535   74.3986   29.0255 H   0  0  0  0  0  0  0  0  0  0  0  0
   51.9156   74.4984   26.9916 H   0  0  0  0  0  0  0  0  0  0  0  0
   51.9032   76.5474   25.5681 H   0  0  0  0  0  0  0  0  0  0  0  0
   53.3395   78.4944   26.1715 H   0  0  0  0  0  0  0  0  0  0  0  0
  1  2  2  0
  2  3  1  0
  3  4  1  0
  4  5  2  0
  5  6  1  0
  6  7  2  0
  7  8  1  0
  8  9  2  0
  8 10  1  0
 10 11  1  0
 11 12  1  0
 12 13  2  0
 12 14  1  0
 14 15  1  0
 15 16  1  0
 16 17  1  0
 11 18  1  0
 18 19  1  0
  2 20  1  0
 20 21  2  0
 21 22  1  0
 22 23  2  0
 23 24  1  0
 24 25  2  0
  9  4  1  0
 17 14  1  0
 25 20  1  0
 19  7  1  0
  3 26  1  0
  6 27  1  0
 10 28  1  0
 10 29  1  0
 14 30  1  0
 15 31  1  0
 15 32  1  0
 16 33  1  0
 16 34  1  0
 17 35  1  0
 17 36  1  0
 18 37  1  0
 18 38  1  0
 19 39  1  0
 19 40  1  0
 21 41  1  0
 22 42  1  0
 23 43  1  0
 24 44  1  0
 25 45  1  0
M  END
>  <meeko>  (1) 
{"is_sidechain": false}

>  <smiles>  (1) 
O=C(Nc1ncc2c(n1)CN(C(=O)C1CCC1)CC2)c1ccccc1

>  <vina_score>  (1) 
-7.623

>  <job_id>  (1) 
27ceda66fb1a474e

$$$$
