
     RDKit          3D

 62 66  0  0  0  0  0  0  0  0999 V2000
   65.3100   82.5750   32.5180 C   0  0  0  0  0  0  0  0  0  0  0  0
   65.3670   83.8130   31.6630 C   0  0  0  0  0  0  0  0  0  0  0  0
   66.1780   84.9360   32.2480 C   0  0  0  0  0  0  0  0  0  0  0  0
   64.7410   83.8430   30.4700 C   0  0  0  0  0  0  0  0  0  0  0  0
   64.6990   84.9720   29.5390 C   0  0  0  0  0  0  0  0  0  0  0  0
   65.6320   85.1070   28.4990 C   0  0  0  0  0  0  0  0  0  0  0  0
   65.6010   86.2110   27.6510 C   0  0  0  0  0  0  0  0  0  0  0  0
   64.6480   87.2170   27.8150 C   0  0  0  0  0  0  0  0  0  0  0  0
   63.7340   87.0850   28.8680 C   0  0  0  0  0  0  0  0  0  0  0  0
   62.7150   87.9260   29.2610 N   0  0  0  0  0  0  0  0  0  0  0  0
   62.0790   87.4300   30.3630 C   0  0  0  0  0  0  0  0  0  0  0  0
   61.0810   88.1100   30.9140 O   0  0  0  0  0  0  0  0  0  0  0  0
   62.6780   86.2280   30.6730 C   0  0  0  0  0  0  0  0  0  0  0  0
   62.3560   85.3460   31.7160 N   0  0  0  0  0  0  0  0  0  0  0  0
   61.5560   84.4350   31.4140 N   0  0  0  0  0  0  0  0  0  0  0  0
   61.3010   83.6350   32.5380 C   0  0  0  0  0  0  0  0  0  0  0  0
   61.7250   84.0040   33.8290 C   0  0  0  0  0  0  0  0  0  0  0  0
   61.4780   83.1860   34.9260 C   0  0  0  0  0  0  0  0  0  0  0  0
   60.8100   81.9700   34.7700 C   0  0  0  0  0  0  0  0  0  0  0  0
   60.4040   81.6040   33.4800 C   0  0  0  0  0  0  0  0  0  0  0  0
   59.7470   80.4690   33.0640 N   0  0  0  0  0  0  0  0  0  0  0  0
   59.5480   80.4980   31.7140 C   0  0  0  0  0  0  0  0  0  0  0  0
   58.9300   79.4820   31.1240 O   0  0  0  0  0  0  0  0  0  0  0  0
   60.0740   81.6810   31.2400 C   0  0  0  0  0  0  0  0  0  0  0  0
   60.0610   82.1470   29.5510 S   0  0  0  0  0  0  0  0  0  0  0  0
   58.5600   81.5360   29.1450 N   0  0  0  0  0  0  0  0  0  0  0  0
   58.6530   80.5450   28.3950 N   0  0  0  0  0  0  0  0  0  0  0  0
   57.3920   80.1090   27.9410 C   0  0  0  0  0  0  0  0  0  0  0  0
   56.8450   78.9640   28.5340 C   0  0  0  0  0  0  0  0  0  0  0  0
   55.5990   78.4710   28.1380 C   0  0  0  0  0  0  0  0  0  0  0  0
   54.8830   79.1410   27.1450 C   0  0  0  0  0  0  0  0  0  0  0  0
   53.3100   78.5170   26.6150 S   0  0  0  0  0  0  0  0  0  0  0  0
   53.6470   78.0840   25.0210 N   0  0  0  0  0  0  0  0  0  0  0  0
   53.0160   77.3080   27.3470 O   0  0  0  0  0  0  0  0  0  0  0  0
   52.3780   79.6180   26.5190 O   0  0  0  0  0  0  0  0  0  0  0  0
   55.4030   80.2890   26.5440 C   0  0  0  0  0  0  0  0  0  0  0  0
   56.6510   80.7730   26.9500 C   0  0  0  0  0  0  0  0  0  0  0  0
   60.6300   82.4000   32.3470 C   0  0  0  0  0  0  0  0  0  0  0  0
   63.7340   85.9910   29.7430 C   0  0  0  0  0  0  0  0  0  0  0  0
   65.3232   82.8618   33.5799 H   0  0  0  0  0  0  0  0  0  0  0  0
   64.3854   82.0207   32.2994 H   0  0  0  0  0  0  0  0  0  0  0  0
   66.1798   81.9380   32.2994 H   0  0  0  0  0  0  0  0  0  0  0  0
   66.1395   84.8827   33.3460 H   0  0  0  0  0  0  0  0  0  0  0  0
   67.2220   84.8475   31.9130 H   0  0  0  0  0  0  0  0  0  0  0  0
   65.7658   85.8992   31.9130 H   0  0  0  0  0  0  0  0  0  0  0  0
   64.2093   82.9293   30.1658 H   0  0  0  0  0  0  0  0  0  0  0  0
   66.3974   84.3308   28.3520 H   0  0  0  0  0  0  0  0  0  0  0  0
   66.3391   86.2913   26.8393 H   0  0  0  0  0  0  0  0  0  0  0  0
   64.6157   88.0848   27.1398 H   0  0  0  0  0  0  0  0  0  0  0  0
   62.4720   88.7970   28.8130 H   0  0  0  0  0  0  0  0  0  0  0  0
   60.5180   87.4330   31.3430 H   0  0  0  0  0  0  0  0  0  0  0  0
   62.2601   84.9544   33.9720 H   0  0  0  0  0  0  0  0  0  0  0  0
   61.8120   83.4999   35.9260 H   0  0  0  0  0  0  0  0  0  0  0  0
   60.6086   81.3191   35.6336 H   0  0  0  0  0  0  0  0  0  0  0  0
   59.4540   79.7100   33.6610 H   0  0  0  0  0  0  0  0  0  0  0  0
   58.5780   78.9140   31.8350 H   0  0  0  0  0  0  0  0  0  0  0  0
   57.4058   78.4441   29.3248 H   0  0  0  0  0  0  0  0  0  0  0  0
   55.1866   77.5640   28.6042 H   0  0  0  0  0  0  0  0  0  0  0  0
   53.4010   77.1010   24.8910 H   0  0  0  0  0  0  0  0  0  0  0  0
   53.1920   78.6860   24.3360 H   0  0  0  0  0  0  0  0  0  0  0  0
   54.8359   80.8086   25.7576 H   0  0  0  0  0  0  0  0  0  0  0  0
   57.0569   81.6847   26.4874 H   0  0  0  0  0  0  0  0  0  0  0  0
  1  2  1  0
  2  3  1  0
  2  4  2  3
  4  5  1  0
  5  6  1  0
  6  7  2  0
  7  8  1  0
  8  9  2  0
  9 10  1  0
 10 11  1  0
 11 12  1  0
 11 13  2  0
 13 14  1  0
 14 15  2  3
 15 16  1  0
 16 17  1  0
 17 18  2  0
 18 19  1  0
 19 20  2  0
 20 21  1  0
 21 22  1  0
 22 23  1  0
 22 24  2  0
 24 25  1  0
 25 26  1  0
 26 27  2  3
 27 28  1  0
 28 29  1  0
 29 30  2  0
 30 31  1  0
 31 32  1  0
 32 33  1  0
 32 34  2  0
 32 35  2  0
 31 36  2  0
 36 37  1  0
 24 38  1  0
 13 39  1  0
 39  5  2  0
 39  9  1  0
 38 16  2  0
 38 20  1  0
 37 28  2  0
  1 40  1  0
  1 41  1  0
  1 42  1  0
  3 43  1  0
  3 44  1  0
  3 45  1  0
  4 46  1  0
  6 47  1  0
  7 48  1  0
  8 49  1  0
 10 50  1  0
 12 51  1  0
 17 52  1  0
 18 53  1  0
 19 54  1  0
 21 55  1  0
 23 56  1  0
 29 57  1  0
 30 58  1  0
 33 59  1  0
 33 60  1  0
 36 61  1  0
 37 62  1  0
M  END
>  <meeko>  (1) 
{"is_sidechain": false}

>  <smiles>  (1) 
CC(C)=Cc1cccc2[nH]c(O)c(N=Nc3cccc4[nH]c(O)c(SN=Nc5ccc(S(N)(=O)=O)cc5)c34)c12

>  <vina_score>  (1) 
-8.162

>  <job_id>  (1) 
27eeb321cb2c4535

$$$$
