
     RDKit          3D

 56 60  0  0  0  0  0  0  0  0999 V2000
   61.5590   80.8310   37.2180 C   0  0  0  0  0  0  0  0  0  0  0  0
   61.4970   82.0410   36.4740 O   0  0  0  0  0  0  0  0  0  0  0  0
   61.3300   81.8270   35.0660 C   0  0  0  0  0  0  0  0  0  0  0  0
   60.6390   83.0270   34.4080 C   0  0  0  0  0  0  0  0  0  0  0  0
   59.6970   82.6380   33.2660 C   0  0  0  0  0  0  0  0  0  0  0  0
   60.1970   81.4490   32.5930 N   0  0  0  0  0  0  0  0  0  0  0  0
   59.7440   81.2250   31.2950 C   0  0  0  0  0  0  0  0  0  0  0  0
   60.0960   82.0750   30.3220 N   0  0  0  0  0  0  0  0  0  0  0  0
   59.6500   81.8140   29.0850 C   0  0  0  0  0  0  0  0  0  0  0  0
   58.8720   80.7280   28.7700 C   0  0  0  0  0  0  0  0  0  0  0  0
   58.5610   79.8810   29.8030 C   0  0  0  0  0  0  0  0  0  0  0  0
   57.7920   78.7330   29.6880 N   0  0  0  0  0  0  0  0  0  0  0  0
   56.5610   78.3440   29.1860 C   0  0  0  0  0  0  0  0  0  0  0  0
   55.9970   78.8360   28.0150 C   0  0  0  0  0  0  0  0  0  0  0  0
   54.7290   78.3570   27.6440 C   0  0  0  0  0  0  0  0  0  0  0  0
   54.0790   77.4010   28.4270 C   0  0  0  0  0  0  0  0  0  0  0  0
   52.8420   77.1120   27.8030 C   0  0  0  0  0  0  0  0  0  0  0  0
   52.7610   77.8830   26.6680 C   0  0  0  0  0  0  0  0  0  0  0  0
   53.9070   78.6560   26.5550 N   0  0  0  0  0  0  0  0  0  0  0  0
   54.1640   79.5860   25.5220 C   0  0  0  0  0  0  0  0  0  0  0  0
   54.4470   79.1760   24.3980 O   0  0  0  0  0  0  0  0  0  0  0  0
   54.1180   81.0380   25.7180 C   0  0  0  0  0  0  0  0  0  0  0  0
   55.3010   81.6950   26.0430 C   0  0  0  0  0  0  0  0  0  0  0  0
   56.4520   81.0160   26.1420 F   0  0  0  0  0  0  0  0  0  0  0  0
   55.3120   83.0710   26.2560 C   0  0  0  0  0  0  0  0  0  0  0  0
   54.1250   83.7950   26.1450 C   0  0  0  0  0  0  0  0  0  0  0  0
   52.9350   83.1380   25.8160 C   0  0  0  0  0  0  0  0  0  0  0  0
   52.9290   81.7560   25.6020 C   0  0  0  0  0  0  0  0  0  0  0  0
   51.4400   81.0020   25.1640 Cl  0  0  0  0  0  0  0  0  0  0  0  0
   54.7150   76.9370   29.5780 C   0  0  0  0  0  0  0  0  0  0  0  0
   55.9350   77.4090   29.9330 N   0  0  0  0  0  0  0  0  0  0  0  0
   58.9840   80.1400   31.0570 N   0  0  0  0  0  0  0  0  0  0  0  0
   60.3540   80.2340   33.3940 C   0  0  0  0  0  0  0  0  0  0  0  0
   60.5080   80.5590   34.8770 C   0  0  0  0  0  0  0  0  0  0  0  0
   61.5472   81.0609   38.2936 H   0  0  0  0  0  0  0  0  0  0  0  0
   60.6919   80.2020   36.9680 H   0  0  0  0  0  0  0  0  0  0  0  0
   62.4858   80.2939   36.9680 H   0  0  0  0  0  0  0  0  0  0  0  0
   62.3125   81.7153   34.5842 H   0  0  0  0  0  0  0  0  0  0  0  0
   60.0556   83.5568   35.1755 H   0  0  0  0  0  0  0  0  0  0  0  0
   61.4291   83.6582   33.9751 H   0  0  0  0  0  0  0  0  0  0  0  0
   58.6960   82.4325   33.6732 H   0  0  0  0  0  0  0  0  0  0  0  0
   59.6428   83.4662   32.5441 H   0  0  0  0  0  0  0  0  0  0  0  0
   59.9228   82.5091   28.2773 H   0  0  0  0  0  0  0  0  0  0  0  0
   58.5172   80.5468   27.7447 H   0  0  0  0  0  0  0  0  0  0  0  0
   58.2670   77.9410   30.1040 H   0  0  0  0  0  0  0  0  0  0  0  0
   56.5264   79.5770   27.3980 H   0  0  0  0  0  0  0  0  0  0  0  0
   52.0837   76.4001   28.1611 H   0  0  0  0  0  0  0  0  0  0  0  0
   51.9191   77.8864   25.9601 H   0  0  0  0  0  0  0  0  0  0  0  0
   56.2512   83.5840   26.5103 H   0  0  0  0  0  0  0  0  0  0  0  0
   54.1248   84.8816   26.3161 H   0  0  0  0  0  0  0  0  0  0  0  0
   52.0001   83.7105   25.7252 H   0  0  0  0  0  0  0  0  0  0  0  0
   54.2212   76.1797   30.2046 H   0  0  0  0  0  0  0  0  0  0  0  0
   59.4666   79.5985   33.2574 H   0  0  0  0  0  0  0  0  0  0  0  0
   61.2631   79.7137   33.0581 H   0  0  0  0  0  0  0  0  0  0  0  0
   59.5119   80.7046   35.3204 H   0  0  0  0  0  0  0  0  0  0  0  0
   61.0263   79.7238   35.3708 H   0  0  0  0  0  0  0  0  0  0  0  0
  1  2  1  0
  2  3  1  0
  3  4  1  0
  4  5  1  0
  5  6  1  0
  6  7  1  0
  7  8  2  0
  8  9  1  0
  9 10  2  0
 10 11  1  0
 11 12  1  0
 12 13  1  0
 13 14  1  0
 14 15  2  0
 15 16  1  0
 16 17  1  0
 17 18  2  0
 18 19  1  0
 19 20  1  0
 20 21  2  0
 20 22  1  0
 22 23  2  0
 23 24  1  0
 23 25  1  0
 25 26  2  0
 26 27  1  0
 27 28  2  0
 28 29  1  0
 16 30  2  0
 30 31  1  0
 11 32  2  0
  6 33  1  0
 33 34  1  0
 34  3  1  0
 32  7  1  0
 31 13  2  0
 19 15  1  0
 28 22  1  0
  1 35  1  0
  1 36  1  0
  1 37  1  0
  3 38  1  0
  4 39  1  0
  4 40  1  0
  5 41  1  0
  5 42  1  0
  9 43  1  0
 10 44  1  0
 12 45  1  0
 14 46  1  0
 17 47  1  0
 18 48  1  0
 25 49  1  0
 26 50  1  0
 27 51  1  0
 30 52  1  0
 33 53  1  0
 33 54  1  0
 34 55  1  0
 34 56  1  0
M  END
>  <meeko>  (1) 
{"is_sidechain": false}

>  <smiles>  (1) 
COC1CCN(c2nccc(Nc3cc4c(ccn4C(=O)c4c(F)cccc4Cl)cn3)n2)CC1

>  <vina_score>  (1) 
-9.452

>  <job_id>  (1) 
28841f0c5e188681

$$$$
