
     RDKit          3D

 40 42  0  0  0  0  0  0  0  0999 V2000
   52.5590   75.7190   27.5850 C   0  0  0  0  0  0  0  0  0  0  0  0
   52.7460   77.0600   28.0140 O   0  0  0  0  0  0  0  0  0  0  0  0
   53.9970   77.4240   28.4480 C   0  0  0  0  0  0  0  0  0  0  0  0
   54.6640   76.8120   29.5180 C   0  0  0  0  0  0  0  0  0  0  0  0
   55.9410   77.2320   29.8950 C   0  0  0  0  0  0  0  0  0  0  0  0
   56.5650   78.2670   29.2100 C   0  0  0  0  0  0  0  0  0  0  0  0
   55.9110   78.8860   28.1450 C   0  0  0  0  0  0  0  0  0  0  0  0
   54.6210   78.4810   27.7450 C   0  0  0  0  0  0  0  0  0  0  0  0
   53.9750   79.1750   26.6150 C   0  0  0  0  0  0  0  0  0  0  0  0
   53.9740   78.6270   25.3290 C   0  0  0  0  0  0  0  0  0  0  0  0
   53.3410   79.2840   24.2620 C   0  0  0  0  0  0  0  0  0  0  0  0
   52.6850   80.5140   24.4260 C   0  0  0  0  0  0  0  0  0  0  0  0
   52.0580   81.1480   23.3640 N   0  0  0  0  0  0  0  0  0  0  0  0
   52.8190   81.7320   22.2500 C   0  0  0  0  0  0  0  0  0  0  0  0
   51.9650   82.7830   21.5040 C   0  0  0  0  0  0  0  0  0  0  0  0
   50.6850   82.2940   20.9570 N   0  0  0  0  0  0  0  0  0  0  0  0
   50.2380   81.0760   21.6560 C   0  0  0  0  0  0  0  0  0  0  0  0
   50.6080   80.9930   23.1540 C   0  0  0  0  0  0  0  0  0  0  0  0
   52.6880   81.0480   25.7230 C   0  0  0  0  0  0  0  0  0  0  0  0
   53.3190   80.3970   26.7950 C   0  0  0  0  0  0  0  0  0  0  0  0
   52.4675   75.0626   28.4629 H   0  0  0  0  0  0  0  0  0  0  0  0
   51.6428   75.6520   26.9799 H   0  0  0  0  0  0  0  0  0  0  0  0
   53.4219   75.4039   26.9799 H   0  0  0  0  0  0  0  0  0  0  0  0
   54.1764   75.9925   30.0663 H   0  0  0  0  0  0  0  0  0  0  0  0
   56.4540   76.7425   30.7360 H   0  0  0  0  0  0  0  0  0  0  0  0
   57.5715   78.5972   29.5066 H   0  0  0  0  0  0  0  0  0  0  0  0
   56.4107   79.7052   27.6072 H   0  0  0  0  0  0  0  0  0  0  0  0
   54.4774   77.6654   25.1502 H   0  0  0  0  0  0  0  0  0  0  0  0
   53.3597   78.8197   23.2650 H   0  0  0  0  0  0  0  0  0  0  0  0
   53.7250   82.2154   22.6444 H   0  0  0  0  0  0  0  0  0  0  0  0
   53.0923   80.9313   21.5470 H   0  0  0  0  0  0  0  0  0  0  0  0
   51.7425   83.5990   22.2073 H   0  0  0  0  0  0  0  0  0  0  0  0
   52.5635   83.0946   20.6352 H   0  0  0  0  0  0  0  0  0  0  0  0
   49.9880   83.0280   21.0800 H   0  0  0  0  0  0  0  0  0  0  0  0
   49.1424   81.0215   21.5743 H   0  0  0  0  0  0  0  0  0  0  0  0
   50.7619   80.2400   21.1695 H   0  0  0  0  0  0  0  0  0  0  0  0
   50.0813   81.7919   23.6966 H   0  0  0  0  0  0  0  0  0  0  0  0
   50.3103   80.0021   23.5275 H   0  0  0  0  0  0  0  0  0  0  0  0
   52.1802   82.0065   25.9059 H   0  0  0  0  0  0  0  0  0  0  0  0
   53.2970   80.8563   27.7943 H   0  0  0  0  0  0  0  0  0  0  0  0
  1  2  1  0
  2  3  1  0
  3  4  2  0
  4  5  1  0
  5  6  2  0
  6  7  1  0
  7  8  2  0
  8  9  1  0
  9 10  1  0
 10 11  2  0
 11 12  1  0
 12 13  1  0
 13 14  1  0
 14 15  1  0
 15 16  1  0
 16 17  1  0
 17 18  1  0
 12 19  2  0
 19 20  1  0
  8  3  1  0
 20  9  2  0
 18 13  1  0
  1 21  1  0
  1 22  1  0
  1 23  1  0
  4 24  1  0
  5 25  1  0
  6 26  1  0
  7 27  1  0
 10 28  1  0
 11 29  1  0
 14 30  1  0
 14 31  1  0
 15 32  1  0
 15 33  1  0
 16 34  1  0
 17 35  1  0
 17 36  1  0
 18 37  1  0
 18 38  1  0
 19 39  1  0
 20 40  1  0
M  END
>  <meeko>  (1) 
{"is_sidechain": false}

>  <smiles>  (1) 
COc1ccccc1-c1ccc(N2CCNCC2)cc1

>  <vina_score>  (1) 
-7.958

>  <job_id>  (1) 
28c8321cb8342f52

$$$$
