
     RDKit          3D

 35 36  0  0  0  0  0  0  0  0999 V2000
   52.0220   76.2450   27.8410 C   0  0  0  0  0  0  0  0  0  0  0  0
   53.1810   77.1950   27.8070 C   0  0  0  0  0  0  0  0  0  0  0  0
   53.3110   78.1250   26.7760 C   0  0  0  0  0  0  0  0  0  0  0  0
   54.4120   78.9920   26.7320 C   0  0  0  0  0  0  0  0  0  0  0  0
   55.4180   78.9630   27.7130 C   0  0  0  0  0  0  0  0  0  0  0  0
   56.5630   79.8460   27.6450 N   0  0  0  0  0  0  0  0  0  0  0  0
   56.3440   81.2080   27.1500 C   0  0  0  0  0  0  0  0  0  0  0  0
   57.8160   79.4860   28.1750 C   0  0  0  0  0  0  0  0  0  0  0  0
   58.5600   78.6060   27.7490 O   0  0  0  0  0  0  0  0  0  0  0  0
   58.3170   80.2320   29.3590 C   0  0  0  0  0  0  0  0  0  0  0  0
   57.8510   79.8820   30.6300 C   0  0  0  0  0  0  0  0  0  0  0  0
   58.3320   80.5560   31.7560 C   0  0  0  0  0  0  0  0  0  0  0  0
   59.2910   81.5680   31.6160 C   0  0  0  0  0  0  0  0  0  0  0  0
   59.7730   82.2530   32.8400 C   0  0  0  0  0  0  0  0  0  0  0  0
   60.8070   82.8850   32.9440 O   0  0  0  0  0  0  0  0  0  0  0  0
   58.9360   82.1080   33.8830 O   0  0  0  0  0  0  0  0  0  0  0  0
   59.7740   81.8980   30.3410 C   0  0  0  0  0  0  0  0  0  0  0  0
   59.2940   81.2260   29.2140 C   0  0  0  0  0  0  0  0  0  0  0  0
   55.2860   77.9970   28.7210 C   0  0  0  0  0  0  0  0  0  0  0  0
   54.1870   77.1270   28.7700 C   0  0  0  0  0  0  0  0  0  0  0  0
   51.7567   76.0275   28.8861 H   0  0  0  0  0  0  0  0  0  0  0  0
   51.1600   76.6998   27.3309 H   0  0  0  0  0  0  0  0  0  0  0  0
   52.2988   75.3105   27.3309 H   0  0  0  0  0  0  0  0  0  0  0  0
   52.5430   78.1788   25.9903 H   0  0  0  0  0  0  0  0  0  0  0  0
   54.4906   79.7150   25.9067 H   0  0  0  0  0  0  0  0  0  0  0  0
   56.2336   81.8946   28.0023 H   0  0  0  0  0  0  0  0  0  0  0  0
   57.2038   81.5184   26.5381 H   0  0  0  0  0  0  0  0  0  0  0  0
   55.4303   81.2332   26.5381 H   0  0  0  0  0  0  0  0  0  0  0  0
   57.1081   79.0787   30.7434 H   0  0  0  0  0  0  0  0  0  0  0  0
   57.9565   80.2911   32.7554 H   0  0  0  0  0  0  0  0  0  0  0  0
   58.3750   82.9100   33.8450 H   0  0  0  0  0  0  0  0  0  0  0  0
   60.5319   82.6872   30.2283 H   0  0  0  0  0  0  0  0  0  0  0  0
   59.6820   81.4765   28.2156 H   0  0  0  0  0  0  0  0  0  0  0  0
   56.0650   77.9196   29.4937 H   0  0  0  0  0  0  0  0  0  0  0  0
   54.1180   76.3828   29.5771 H   0  0  0  0  0  0  0  0  0  0  0  0
  1  2  1  0
  2  3  1  0
  3  4  2  0
  4  5  1  0
  5  6  1  0
  6  7  1  0
  6  8  1  0
  8  9  2  0
  8 10  1  0
 10 11  1  0
 11 12  2  0
 12 13  1  0
 13 14  1  0
 14 15  2  0
 14 16  1  0
 13 17  2  0
 17 18  1  0
  5 19  2  0
 19 20  1  0
 20  2  2  0
 18 10  2  0
  1 21  1  0
  1 22  1  0
  1 23  1  0
  3 24  1  0
  4 25  1  0
  7 26  1  0
  7 27  1  0
  7 28  1  0
 11 29  1  0
 12 30  1  0
 16 31  1  0
 17 32  1  0
 18 33  1  0
 19 34  1  0
 20 35  1  0
M  END
>  <meeko>  (1) 
{"is_sidechain": false}

>  <smiles>  (1) 
Cc1ccc(N(C)C(=O)c2ccc(C(=O)O)cc2)cc1

>  <vina_score>  (1) 
-7.536

>  <job_id>  (1) 
29206e3720691087

$$$$
