
     RDKit          3D

 55 57  0  0  0  0  0  0  0  0999 V2000
   61.3310   80.6020   37.3730 C   0  0  0  0  0  0  0  0  0  0  0  0
   61.6930   80.3140   36.0280 O   0  0  0  0  0  0  0  0  0  0  0  0
   61.5690   81.3330   35.1210 C   0  0  0  0  0  0  0  0  0  0  0  0
   62.0870   82.6190   35.2610 C   0  0  0  0  0  0  0  0  0  0  0  0
   61.8900   83.5610   34.2520 C   0  0  0  0  0  0  0  0  0  0  0  0
   61.1720   83.2200   33.1050 C   0  0  0  0  0  0  0  0  0  0  0  0
   60.6350   81.9350   32.9420 C   0  0  0  0  0  0  0  0  0  0  0  0
   59.9260   81.6470   31.7520 N   0  0  0  0  0  0  0  0  0  0  0  0
   59.5380   82.8270   30.9620 C   0  0  0  0  0  0  0  0  0  0  0  0
   59.3370   82.4440   29.4930 C   0  0  0  0  0  0  0  0  0  0  0  0
   59.7240   80.9990   29.1880 C   0  0  0  0  0  0  0  0  0  0  0  0
   58.7870   79.9640   29.6260 N   0  0  0  0  0  0  0  0  0  0  0  0
   57.6950   79.5330   28.8660 C   0  0  0  0  0  0  0  0  0  0  0  0
   57.6230   79.7720   27.6630 O   0  0  0  0  0  0  0  0  0  0  0  0
   56.7390   78.8560   29.5900 N   0  0  0  0  0  0  0  0  0  0  0  0
   55.6080   78.1730   29.0950 C   0  0  0  0  0  0  0  0  0  0  0  0
   55.4280   76.8520   29.5100 C   0  0  0  0  0  0  0  0  0  0  0  0
   54.3370   76.1160   29.0500 C   0  0  0  0  0  0  0  0  0  0  0  0
   53.4060   76.6850   28.1770 C   0  0  0  0  0  0  0  0  0  0  0  0
   52.3980   75.8260   27.8180 O   0  0  0  0  0  0  0  0  0  0  0  0
   52.5600   75.1660   26.5670 C   0  0  0  0  0  0  0  0  0  0  0  0
   53.5940   78.0000   27.7190 C   0  0  0  0  0  0  0  0  0  0  0  0
   52.7000   78.4850   26.8000 O   0  0  0  0  0  0  0  0  0  0  0  0
   52.9180   79.7940   26.2860 C   0  0  0  0  0  0  0  0  0  0  0  0
   54.6980   78.7320   28.1890 C   0  0  0  0  0  0  0  0  0  0  0  0
   58.8500   79.5080   31.0190 C   0  0  0  0  0  0  0  0  0  0  0  0
   58.8450   80.6670   32.0280 C   0  0  0  0  0  0  0  0  0  0  0  0
   60.8490   81.0000   33.9660 C   0  0  0  0  0  0  0  0  0  0  0  0
   62.0051   80.0657   38.0570 H   0  0  0  0  0  0  0  0  0  0  0  0
   61.4131   81.6844   37.5511 H   0  0  0  0  0  0  0  0  0  0  0  0
   60.2948   80.2787   37.5511 H   0  0  0  0  0  0  0  0  0  0  0  0
   62.6503   82.8906   36.1659 H   0  0  0  0  0  0  0  0  0  0  0  0
   62.3015   84.5753   34.3604 H   0  0  0  0  0  0  0  0  0  0  0  0
   61.0249   83.9718   32.3156 H   0  0  0  0  0  0  0  0  0  0  0  0
   58.5988   83.2375   31.3612 H   0  0  0  0  0  0  0  0  0  0  0  0
   60.3379   83.5792   31.0282 H   0  0  0  0  0  0  0  0  0  0  0  0
   58.2760   82.5827   29.2379 H   0  0  0  0  0  0  0  0  0  0  0  0
   59.9949   83.0911   28.8943 H   0  0  0  0  0  0  0  0  0  0  0  0
   59.8375   80.9068   28.0978 H   0  0  0  0  0  0  0  0  0  0  0  0
   60.6452   80.8180   29.7613 H   0  0  0  0  0  0  0  0  0  0  0  0
   56.7400   79.0460   30.5800 H   0  0  0  0  0  0  0  0  0  0  0  0
   56.1487   76.3910   30.2015 H   0  0  0  0  0  0  0  0  0  0  0  0
   54.2074   75.0742   29.3784 H   0  0  0  0  0  0  0  0  0  0  0  0
   52.8190   74.1110   26.7399 H   0  0  0  0  0  0  0  0  0  0  0  0
   51.6209   75.2244   25.9973 H   0  0  0  0  0  0  0  0  0  0  0  0
   53.3654   75.6526   25.9973 H   0  0  0  0  0  0  0  0  0  0  0  0
   53.0357   80.5008   27.1206 H   0  0  0  0  0  0  0  0  0  0  0  0
   53.8293   79.7990   25.6700 H   0  0  0  0  0  0  0  0  0  0  0  0
   52.0575   80.0941   25.6700 H   0  0  0  0  0  0  0  0  0  0  0  0
   54.8502   79.7635   27.8386 H   0  0  0  0  0  0  0  0  0  0  0  0
   57.9794   78.8657   31.2178 H   0  0  0  0  0  0  0  0  0  0  0  0
   59.7975   78.9638   31.1458 H   0  0  0  0  0  0  0  0  0  0  0  0
   57.8750   81.1827   31.9723 H   0  0  0  0  0  0  0  0  0  0  0  0
   59.0141   80.2467   33.0304 H   0  0  0  0  0  0  0  0  0  0  0  0
   60.4427   79.9833   33.8598 H   0  0  0  0  0  0  0  0  0  0  0  0
  1  2  1  0
  2  3  1  0
  3  4  1  0
  4  5  2  0
  5  6  1  0
  6  7  2  0
  7  8  1  0
  8  9  1  0
  9 10  1  0
 10 11  1  0
 11 12  1  0
 12 13  1  0
 13 14  2  0
 13 15  1  0
 15 16  1  0
 16 17  1  0
 17 18  2  0
 18 19  1  0
 19 20  1  0
 20 21  1  0
 19 22  2  0
 22 23  1  0
 23 24  1  0
 22 25  1  0
 12 26  1  0
 26 27  1  0
  7 28  1  0
 28  3  2  0
 27  8  1  0
 25 16  2  0
  1 29  1  0
  1 30  1  0
  1 31  1  0
  4 32  1  0
  5 33  1  0
  6 34  1  0
  9 35  1  0
  9 36  1  0
 10 37  1  0
 10 38  1  0
 11 39  1  0
 11 40  1  0
 15 41  1  0
 17 42  1  0
 18 43  1  0
 21 44  1  0
 21 45  1  0
 21 46  1  0
 24 47  1  0
 24 48  1  0
 24 49  1  0
 25 50  1  0
 26 51  1  0
 26 52  1  0
 27 53  1  0
 27 54  1  0
 28 55  1  0
M  END
>  <meeko>  (1) 
{"is_sidechain": false}

>  <smiles>  (1) 
COc1cccc(N2CCCN(C(=O)Nc3ccc(OC)c(OC)c3)CC2)c1

>  <vina_score>  (1) 
-5.949

>  <job_id>  (1) 
293b316c795ee922

$$$$
