
     RDKit          3D

 51 53  0  0  0  0  0  0  0  0999 V2000
   62.2810   84.6740   32.1360 C   0  0  0  0  0  0  0  0  0  0  0  0
   61.7790   83.4170   31.4770 C   0  0  0  0  0  0  0  0  0  0  0  0
   62.8650   82.4820   31.0200 C   0  0  0  0  0  0  0  0  0  0  0  0
   60.4540   83.1940   31.3590 C   0  0  0  0  0  0  0  0  0  0  0  0
   59.8120   82.0340   30.7300 C   0  0  0  0  0  0  0  0  0  0  0  0
   59.6560   81.9530   29.3450 C   0  0  0  0  0  0  0  0  0  0  0  0
   59.0110   80.8510   28.7700 C   0  0  0  0  0  0  0  0  0  0  0  0
   58.4940   79.8060   29.5580 C   0  0  0  0  0  0  0  0  0  0  0  0
   57.8650   78.7350   28.9130 N   0  0  0  0  0  0  0  0  0  0  0  0
   56.5400   78.3350   28.7740 C   0  0  0  0  0  0  0  0  0  0  0  0
   55.9350   77.5480   29.6770 N   0  0  0  0  0  0  0  0  0  0  0  0
   54.6430   77.2290   29.4590 C   0  0  0  0  0  0  0  0  0  0  0  0
   53.9360   77.6610   28.3700 C   0  0  0  0  0  0  0  0  0  0  0  0
   52.6530   77.3200   28.1970 F   0  0  0  0  0  0  0  0  0  0  0  0
   54.6350   78.4470   27.4810 C   0  0  0  0  0  0  0  0  0  0  0  0
   54.0150   79.0100   26.2900 C   0  0  0  0  0  0  0  0  0  0  0  0
   53.4500   78.3330   25.2250 C   0  0  0  0  0  0  0  0  0  0  0  0
   52.9360   79.1860   24.2970 N   0  0  0  0  0  0  0  0  0  0  0  0
   53.1770   80.3960   24.7540 C   0  0  0  0  0  0  0  0  0  0  0  0
   52.7660   81.6480   24.0640 C   0  0  0  0  0  0  0  0  0  0  0  0
   53.8710   80.3480   25.9560 N   0  0  0  0  0  0  0  0  0  0  0  0
   54.3790   81.5330   26.6490 C   0  0  0  0  0  0  0  0  0  0  0  0
   55.5600   82.1740   25.9200 C   0  0  0  0  0  0  0  0  0  0  0  0
   53.3100   82.5560   27.0400 C   0  0  0  0  0  0  0  0  0  0  0  0
   55.9250   78.7960   27.6710 N   0  0  0  0  0  0  0  0  0  0  0  0
   58.6400   79.9080   30.9420 C   0  0  0  0  0  0  0  0  0  0  0  0
   59.2840   81.0080   31.5140 C   0  0  0  0  0  0  0  0  0  0  0  0
   59.3870   81.0620   32.8520 F   0  0  0  0  0  0  0  0  0  0  0  0
   62.2349   84.5586   33.2290 H   0  0  0  0  0  0  0  0  0  0  0  0
   63.3215   84.8579   31.8303 H   0  0  0  0  0  0  0  0  0  0  0  0
   61.6534   85.5241   31.8303 H   0  0  0  0  0  0  0  0  0  0  0  0
   63.3685   82.0485   31.8967 H   0  0  0  0  0  0  0  0  0  0  0  0
   62.4243   81.6762   30.4146 H   0  0  0  0  0  0  0  0  0  0  0  0
   63.5963   83.0375   30.4146 H   0  0  0  0  0  0  0  0  0  0  0  0
   59.7856   83.9609   31.7775 H   0  0  0  0  0  0  0  0  0  0  0  0
   60.0415   82.7584   28.7025 H   0  0  0  0  0  0  0  0  0  0  0  0
   58.9060   80.8010   27.6762 H   0  0  0  0  0  0  0  0  0  0  0  0
   58.4560   78.1010   28.3950 H   0  0  0  0  0  0  0  0  0  0  0  0
   54.1318   76.5894   30.1935 H   0  0  0  0  0  0  0  0  0  0  0  0
   53.4195   77.2369   25.1381 H   0  0  0  0  0  0  0  0  0  0  0  0
   52.5146   82.4137   24.8127 H   0  0  0  0  0  0  0  0  0  0  0  0
   53.5931   82.0082   23.4345 H   0  0  0  0  0  0  0  0  0  0  0  0
   51.8864   81.4480   23.4345 H   0  0  0  0  0  0  0  0  0  0  0  0
   54.7560   81.1489   27.6084 H   0  0  0  0  0  0  0  0  0  0  0  0
   56.2779   82.5637   26.6567 H   0  0  0  0  0  0  0  0  0  0  0  0
   56.0544   81.4204   25.2894 H   0  0  0  0  0  0  0  0  0  0  0  0
   55.1975   82.9992   25.2894 H   0  0  0  0  0  0  0  0  0  0  0  0
   53.2453   82.6179   28.1364 H   0  0  0  0  0  0  0  0  0  0  0  0
   53.5791   83.5416   26.6323 H   0  0  0  0  0  0  0  0  0  0  0  0
   52.3372   82.2438   26.6323 H   0  0  0  0  0  0  0  0  0  0  0  0
   58.2433   79.1129   31.5904 H   0  0  0  0  0  0  0  0  0  0  0  0
  1  2  1  0
  2  3  1  0
  2  4  2  3
  4  5  1  0
  5  6  1  0
  6  7  2  0
  7  8  1  0
  8  9  1  0
  9 10  1  0
 10 11  2  0
 11 12  1  0
 12 13  2  0
 13 14  1  0
 13 15  1  0
 15 16  1  0
 16 17  2  0
 17 18  1  0
 18 19  2  0
 19 20  1  0
 19 21  1  0
 21 22  1  0
 22 23  1  0
 22 24  1  0
 15 25  2  0
  8 26  2  0
 26 27  1  0
 27 28  1  0
 27  5  2  0
 25 10  1  0
 21 16  1  0
  1 29  1  0
  1 30  1  0
  1 31  1  0
  3 32  1  0
  3 33  1  0
  3 34  1  0
  4 35  1  0
  6 36  1  0
  7 37  1  0
  9 38  1  0
 12 39  1  0
 17 40  1  0
 20 41  1  0
 20 42  1  0
 20 43  1  0
 22 44  1  0
 23 45  1  0
 23 46  1  0
 23 47  1  0
 24 48  1  0
 24 49  1  0
 24 50  1  0
 26 51  1  0
M  END
>  <meeko>  (1) 
{"is_sidechain": false}

>  <smiles>  (1) 
CC(C)=Cc1ccc(Nc2ncc(F)c(-c3cnc(C)n3C(C)C)n2)cc1F

>  <vina_score>  (1) 
-9.144

>  <job_id>  (1) 
2943b3bf9b19a40b

$$$$
