
     RDKit          3D

 66 68  0  0  0  0  0  0  0  0999 V2000
   61.5660   80.6250   38.4240 C   0  0  0  0  0  0  0  0  0  0  0  0
   61.6090   81.3880   37.3190 C   0  0  0  0  0  0  0  0  0  0  0  0
   62.6740   82.4510   37.1910 C   0  0  0  0  0  0  0  0  0  0  0  0
   60.7470   81.2780   36.2390 N   0  0  0  0  0  0  0  0  0  0  0  0
   60.9800   81.9460   35.0360 N   0  0  0  0  0  0  0  0  0  0  0  0
   61.4600   81.2120   33.9690 C   0  0  0  0  0  0  0  0  0  0  0  0
   61.7010   80.0090   34.0200 O   0  0  0  0  0  0  0  0  0  0  0  0
   61.6370   82.0250   32.7330 C   0  0  0  0  0  0  0  0  0  0  0  0
   60.4090   82.5180   32.0530 C   0  0  0  0  0  0  0  0  0  0  0  0
   59.9600   83.6340   32.3020 O   0  0  0  0  0  0  0  0  0  0  0  0
   59.6750   81.5950   31.1540 C   0  0  0  0  0  0  0  0  0  0  0  0
   59.9870   81.6020   29.7920 C   0  0  0  0  0  0  0  0  0  0  0  0
   59.3130   80.7480   28.9060 C   0  0  0  0  0  0  0  0  0  0  0  0
   58.3200   79.8710   29.3540 C   0  0  0  0  0  0  0  0  0  0  0  0
   57.6270   78.9840   28.5230 N   0  0  0  0  0  0  0  0  0  0  0  0
   56.2890   78.6220   28.3950 C   0  0  0  0  0  0  0  0  0  0  0  0
   55.6390   77.9450   29.3540 N   0  0  0  0  0  0  0  0  0  0  0  0
   54.3460   77.6340   29.1290 C   0  0  0  0  0  0  0  0  0  0  0  0
   53.6770   77.9820   27.9860 C   0  0  0  0  0  0  0  0  0  0  0  0
   52.3940   77.6490   27.8060 F   0  0  0  0  0  0  0  0  0  0  0  0
   54.4090   78.6920   27.0610 C   0  0  0  0  0  0  0  0  0  0  0  0
   53.8530   79.1050   25.7810 C   0  0  0  0  0  0  0  0  0  0  0  0
   53.3140   78.3030   24.7920 C   0  0  0  0  0  0  0  0  0  0  0  0
   52.9130   79.0300   23.7120 N   0  0  0  0  0  0  0  0  0  0  0  0
   53.1830   80.2830   24.0070 C   0  0  0  0  0  0  0  0  0  0  0  0
   52.9290   81.4300   23.0950 C   0  0  0  0  0  0  0  0  0  0  0  0
   53.7240   80.3920   25.2820 N   0  0  0  0  0  0  0  0  0  0  0  0
   54.0200   81.6690   25.9320 C   0  0  0  0  0  0  0  0  0  0  0  0
   53.3100   81.8880   27.2700 C   0  0  0  0  0  0  0  0  0  0  0  0
   55.5200   81.9500   26.0160 C   0  0  0  0  0  0  0  0  0  0  0  0
   55.7080   79.0130   27.2470 N   0  0  0  0  0  0  0  0  0  0  0  0
   58.0390   79.8570   30.7280 C   0  0  0  0  0  0  0  0  0  0  0  0
   58.7090   80.7050   31.6130 C   0  0  0  0  0  0  0  0  0  0  0  0
   58.4160   80.6070   32.9160 F   0  0  0  0  0  0  0  0  0  0  0  0
   62.8630   82.3540   32.2590 C   0  0  0  0  0  0  0  0  0  0  0  0
   63.0860   83.1390   30.9880 C   0  0  0  0  0  0  0  0  0  0  0  0
   64.1550   81.9770   32.9430 C   0  0  0  0  0  0  0  0  0  0  0  0
   60.7939   79.8482   38.5263 H   0  0  0  0  0  0  0  0  0  0  0  0
   62.3029   80.7771   39.2264 H   0  0  0  0  0  0  0  0  0  0  0  0
   62.9948   82.7712   38.1933 H   0  0  0  0  0  0  0  0  0  0  0  0
   63.5360   82.0424   36.6432 H   0  0  0  0  0  0  0  0  0  0  0  0
   62.2670   83.3137   36.6432 H   0  0  0  0  0  0  0  0  0  0  0  0
   60.4350   80.3110   36.0760 H   0  0  0  0  0  0  0  0  0  0  0  0
   60.7850   82.9420   35.0070 H   0  0  0  0  0  0  0  0  0  0  0  0
   60.7651   82.2806   29.4124 H   0  0  0  0  0  0  0  0  0  0  0  0
   59.5710   80.7687   27.8369 H   0  0  0  0  0  0  0  0  0  0  0  0
   58.1830   78.3760   27.9360 H   0  0  0  0  0  0  0  0  0  0  0  0
   53.8015   77.0726   29.9026 H   0  0  0  0  0  0  0  0  0  0  0  0
   53.2203   77.2096   24.8681 H   0  0  0  0  0  0  0  0  0  0  0  0
   52.7289   82.3337   23.6894 H   0  0  0  0  0  0  0  0  0  0  0  0
   53.8120   81.5965   22.4605 H   0  0  0  0  0  0  0  0  0  0  0  0
   52.0582   81.2081   22.4605 H   0  0  0  0  0  0  0  0  0  0  0  0
   53.5840   82.4240   25.2612 H   0  0  0  0  0  0  0  0  0  0  0  0
   54.0063   81.6732   28.0940 H   0  0  0  0  0  0  0  0  0  0  0  0
   52.9714   82.9323   27.3388 H   0  0  0  0  0  0  0  0  0  0  0  0
   52.4420   81.2158   27.3388 H   0  0  0  0  0  0  0  0  0  0  0  0
   55.8238   82.0069   27.0717 H   0  0  0  0  0  0  0  0  0  0  0  0
   56.0732   81.1399   25.5184 H   0  0  0  0  0  0  0  0  0  0  0  0
   55.7425   82.9054   25.5184 H   0  0  0  0  0  0  0  0  0  0  0  0
   57.2767   79.1653   31.1160 H   0  0  0  0  0  0  0  0  0  0  0  0
   63.3786   84.1690   31.2398 H   0  0  0  0  0  0  0  0  0  0  0  0
   63.8849   82.6644   30.3993 H   0  0  0  0  0  0  0  0  0  0  0  0
   62.1569   83.1553   30.3993 H   0  0  0  0  0  0  0  0  0  0  0  0
   64.0177   82.0171   34.0337 H   0  0  0  0  0  0  0  0  0  0  0  0
   64.4427   80.9574   32.6469 H   0  0  0  0  0  0  0  0  0  0  0  0
   64.9459   82.6818   32.6469 H   0  0  0  0  0  0  0  0  0  0  0  0
  1  2  2  0
  2  3  1  0
  2  4  1  0
  4  5  1  0
  5  6  1  0
  6  7  2  0
  6  8  1  0
  8  9  1  0
  9 10  2  0
  9 11  1  0
 11 12  1  0
 12 13  2  0
 13 14  1  0
 14 15  1  0
 15 16  1  0
 16 17  2  0
 17 18  1  0
 18 19  2  0
 19 20  1  0
 19 21  1  0
 21 22  1  0
 22 23  2  0
 23 24  1  0
 24 25  2  0
 25 26  1  0
 25 27  1  0
 27 28  1  0
 28 29  1  0
 28 30  1  0
 21 31  2  0
 14 32  2  0
 32 33  1  0
 33 34  1  0
  8 35  2  3
 35 36  1  0
 35 37  1  0
 33 11  2  0
 31 16  1  0
 27 22  1  0
  1 38  1  0
  1 39  1  0
  3 40  1  0
  3 41  1  0
  3 42  1  0
  4 43  1  0
  5 44  1  0
 12 45  1  0
 13 46  1  0
 15 47  1  0
 18 48  1  0
 23 49  1  0
 26 50  1  0
 26 51  1  0
 26 52  1  0
 28 53  1  0
 29 54  1  0
 29 55  1  0
 29 56  1  0
 30 57  1  0
 30 58  1  0
 30 59  1  0
 32 60  1  0
 36 61  1  0
 36 62  1  0
 36 63  1  0
 37 64  1  0
 37 65  1  0
 37 66  1  0
M  END
>  <meeko>  (1) 
{"is_sidechain": false}

>  <smiles>  (1) 
C=C(C)NNC(=O)C(C(=O)c1ccc(Nc2ncc(F)c(-c3cnc(C)n3C(C)C)n2)cc1F)=C(C)C

>  <vina_score>  (1) 
-9.153

>  <job_id>  (1) 
294f48f9c4593746

$$$$
