
     RDKit          3D

 44 46  0  0  0  0  0  0  0  0999 V2000
   52.2150   76.0940   27.8010 C   0  0  0  0  0  0  0  0  0  0  0  0
   53.1660   77.1740   27.3690 C   0  0  0  0  0  0  0  0  0  0  0  0
   52.8620   77.7650   26.1860 N   0  0  0  0  0  0  0  0  0  0  0  0
   53.6540   78.7630   25.7590 C   0  0  0  0  0  0  0  0  0  0  0  0
   54.7570   79.2120   26.4560 C   0  0  0  0  0  0  0  0  0  0  0  0
   55.0960   78.6020   27.6730 C   0  0  0  0  0  0  0  0  0  0  0  0
   56.2490   79.1070   28.4300 C   0  0  0  0  0  0  0  0  0  0  0  0
   56.5190   78.7480   29.7410 C   0  0  0  0  0  0  0  0  0  0  0  0
   57.6380   79.2900   30.3720 C   0  0  0  0  0  0  0  0  0  0  0  0
   58.4640   80.1780   29.6910 C   0  0  0  0  0  0  0  0  0  0  0  0
   59.5970   80.7150   30.3520 N   0  0  0  0  0  0  0  0  0  0  0  0
   59.4380   80.7560   31.8120 C   0  0  0  0  0  0  0  0  0  0  0  0
   58.6880   82.0310   32.2060 C   0  0  0  0  0  0  0  0  0  0  0  0
   59.5770   83.2180   32.5650 C   0  0  0  0  0  0  0  0  0  0  0  0
   60.2800   83.8690   31.3740 C   0  0  0  0  0  0  0  0  0  0  0  0
   60.9710   82.8400   30.4850 C   0  0  0  0  0  0  0  0  0  0  0  0
   60.0240   81.9530   29.6770 C   0  0  0  0  0  0  0  0  0  0  0  0
   58.1620   80.5030   28.4150 N   0  0  0  0  0  0  0  0  0  0  0  0
   57.0620   79.9650   27.7790 N   0  0  0  0  0  0  0  0  0  0  0  0
   54.2880   77.5330   28.1360 C   0  0  0  0  0  0  0  0  0  0  0  0
   54.6040   76.8120   29.4230 C   0  0  0  0  0  0  0  0  0  0  0  0
   55.1630   75.5390   29.1450 O   0  0  0  0  0  0  0  0  0  0  0  0
   52.1800   76.0542   28.8997 H   0  0  0  0  0  0  0  0  0  0  0  0
   51.2103   76.3121   27.4098 H   0  0  0  0  0  0  0  0  0  0  0  0
   52.5584   75.1250   27.4098 H   0  0  0  0  0  0  0  0  0  0  0  0
   53.4099   79.2481   24.8024 H   0  0  0  0  0  0  0  0  0  0  0  0
   55.3644   80.0399   26.0614 H   0  0  0  0  0  0  0  0  0  0  0  0
   55.8611   78.0467   30.2752 H   0  0  0  0  0  0  0  0  0  0  0  0
   57.8683   79.0144   31.4117 H   0  0  0  0  0  0  0  0  0  0  0  0
   58.8665   79.8766   32.1438 H   0  0  0  0  0  0  0  0  0  0  0  0
   60.4288   80.7499   32.2899 H   0  0  0  0  0  0  0  0  0  0  0  0
   58.0497   82.3264   31.3603 H   0  0  0  0  0  0  0  0  0  0  0  0
   58.1215   81.7852   33.1163 H   0  0  0  0  0  0  0  0  0  0  0  0
   58.9515   83.9801   33.0528 H   0  0  0  0  0  0  0  0  0  0  0  0
   60.3698   82.8272   33.2198 H   0  0  0  0  0  0  0  0  0  0  0  0
   59.5341   84.4119   30.7749 H   0  0  0  0  0  0  0  0  0  0  0  0
   61.0495   84.5508   31.7653 H   0  0  0  0  0  0  0  0  0  0  0  0
   61.6210   83.3784   29.7797 H   0  0  0  0  0  0  0  0  0  0  0  0
   61.5241   82.1695   31.1592 H   0  0  0  0  0  0  0  0  0  0  0  0
   59.1242   82.5406   29.4423 H   0  0  0  0  0  0  0  0  0  0  0  0
   60.5865   81.6371   28.7860 H   0  0  0  0  0  0  0  0  0  0  0  0
   55.3239   77.4059   30.0052 H   0  0  0  0  0  0  0  0  0  0  0  0
   53.6757   76.6792   29.9980 H   0  0  0  0  0  0  0  0  0  0  0  0
   54.6220   74.8930   29.6450 H   0  0  0  0  0  0  0  0  0  0  0  0
  1  2  1  0
  2  3  1  0
  3  4  2  0
  4  5  1  0
  5  6  2  0
  6  7  1  0
  7  8  2  0
  8  9  1  0
  9 10  2  0
 10 11  1  0
 11 12  1  0
 12 13  1  0
 13 14  1  0
 14 15  1  0
 15 16  1  0
 16 17  1  0
 10 18  1  0
 18 19  2  0
  6 20  1  0
 20 21  1  0
 21 22  1  0
 20  2  2  0
 19  7  1  0
 17 11  1  0
  1 23  1  0
  1 24  1  0
  1 25  1  0
  4 26  1  0
  5 27  1  0
  8 28  1  0
  9 29  1  0
 12 30  1  0
 12 31  1  0
 13 32  1  0
 13 33  1  0
 14 34  1  0
 14 35  1  0
 15 36  1  0
 15 37  1  0
 16 38  1  0
 16 39  1  0
 17 40  1  0
 17 41  1  0
 21 42  1  0
 21 43  1  0
 22 44  1  0
M  END
>  <meeko>  (1) 
{"is_sidechain": false}

>  <smiles>  (1) 
Cc1nccc(-c2ccc(N3CCCCCC3)nn2)c1CO

>  <vina_score>  (1) 
-6.021

>  <job_id>  (1) 
297276da4f4a97b1

$$$$
