
     RDKit          3D

 38 40  0  0  0  0  0  0  0  0999 V2000
   50.3230   81.3570   22.0730 N   0  0  0  0  0  0  0  0  0  0  0  0
   51.9220   81.8430   22.2910 S   0  0  0  0  0  0  0  0  0  0  0  0
   51.9160   83.2330   22.6750 O   0  0  0  0  0  0  0  0  0  0  0  0
   52.6340   81.3570   21.1310 O   0  0  0  0  0  0  0  0  0  0  0  0
   52.3960   80.8710   23.6950 C   0  0  0  0  0  0  0  0  0  0  0  0
   52.9410   79.6010   23.4930 C   0  0  0  0  0  0  0  0  0  0  0  0
   53.3100   78.8270   24.5960 C   0  0  0  0  0  0  0  0  0  0  0  0
   53.1300   79.3140   25.9000 C   0  0  0  0  0  0  0  0  0  0  0  0
   53.5210   78.4710   27.0940 C   0  0  0  0  0  0  0  0  0  0  0  0
   54.8710   78.8190   27.6760 C   0  0  0  0  0  0  0  0  0  0  0  0
   55.6620   79.8170   27.1000 C   0  0  0  0  0  0  0  0  0  0  0  0
   56.9110   80.1360   27.6440 C   0  0  0  0  0  0  0  0  0  0  0  0
   57.4280   79.4790   28.7780 C   0  0  0  0  0  0  0  0  0  0  0  0
   58.8430   79.8320   29.4040 C   0  0  0  0  0  0  0  0  0  0  0  0
   59.4570   81.2190   29.1550 C   0  0  0  0  0  0  0  0  0  0  0  0
   59.7340   81.3970   30.5660 O   0  0  0  0  0  0  0  0  0  0  0  0
   58.9350   80.2320   30.8860 C   0  0  0  0  0  0  0  0  0  0  0  0
   56.6120   78.4760   29.3350 C   0  0  0  0  0  0  0  0  0  0  0  0
   55.3610   78.1480   28.8000 C   0  0  0  0  0  0  0  0  0  0  0  0
   52.5710   80.5900   26.0820 C   0  0  0  0  0  0  0  0  0  0  0  0
   52.1990   81.3670   24.9840 C   0  0  0  0  0  0  0  0  0  0  0  0
   50.2150   80.3450   22.0240 H   0  0  0  0  0  0  0  0  0  0  0  0
   49.9490   81.8220   21.2440 H   0  0  0  0  0  0  0  0  0  0  0  0
   53.0787   79.2130   22.4729 H   0  0  0  0  0  0  0  0  0  0  0  0
   53.7448   77.8285   24.4413 H   0  0  0  0  0  0  0  0  0  0  0  0
   52.7610   78.6073   27.8775 H   0  0  0  0  0  0  0  0  0  0  0  0
   53.5846   77.4308   26.7421 H   0  0  0  0  0  0  0  0  0  0  0  0
   55.2998   80.3559   26.2121 H   0  0  0  0  0  0  0  0  0  0  0  0
   57.5101   80.9273   27.1698 H   0  0  0  0  0  0  0  0  0  0  0  0
   59.2707   78.9021   29.0011 H   0  0  0  0  0  0  0  0  0  0  0  0
   60.3594   81.1970   28.5263 H   0  0  0  0  0  0  0  0  0  0  0  0
   58.8737   81.9809   28.6172 H   0  0  0  0  0  0  0  0  0  0  0  0
   59.4590   79.4944   31.5117 H   0  0  0  0  0  0  0  0  0  0  0  0
   58.0125   80.3524   31.4729 H   0  0  0  0  0  0  0  0  0  0  0  0
   56.9700   77.9314   30.2211 H   0  0  0  0  0  0  0  0  0  0  0  0
   54.7584   77.3556   29.2679 H   0  0  0  0  0  0  0  0  0  0  0  0
   52.4251   80.9805   27.1000 H   0  0  0  0  0  0  0  0  0  0  0  0
   51.7543   82.3619   25.1336 H   0  0  0  0  0  0  0  0  0  0  0  0
  1  2  1  0
  2  3  2  0
  2  4  2  0
  2  5  1  0
  5  6  1  0
  6  7  2  0
  7  8  1  0
  8  9  1  0
  9 10  1  0
 10 11  1  0
 11 12  2  0
 12 13  1  0
 13 14  1  0
 14 15  1  0
 15 16  1  0
 16 17  1  0
 13 18  2  0
 18 19  1  0
  8 20  2  0
 20 21  1  0
 21  5  2  0
 19 10  2  0
 17 14  1  0
  1 22  1  0
  1 23  1  0
  6 24  1  0
  7 25  1  0
  9 26  1  0
  9 27  1  0
 11 28  1  0
 12 29  1  0
 14 30  1  0
 15 31  1  0
 15 32  1  0
 17 33  1  0
 17 34  1  0
 18 35  1  0
 19 36  1  0
 20 37  1  0
 21 38  1  0
M  END
>  <meeko>  (1) 
{"is_sidechain": false}

>  <smiles>  (1) 
NS(=O)(=O)c1ccc(Cc2ccc(C3COC3)cc2)cc1

>  <vina_score>  (1) 
-8.612

>  <job_id>  (1) 
299025d0e0c9f883

$$$$
