
     RDKit          3D

 54 57  0  0  0  0  0  0  0  0999 V2000
   50.7150   85.8290   21.2680 C   0  0  0  0  0  0  0  0  0  0  0  0
   51.0600   84.3970   20.8960 C   0  0  0  0  0  0  0  0  0  0  0  0
   51.5560   83.6410   22.0290 N   0  0  0  0  0  0  0  0  0  0  0  0
   51.5720   82.2680   22.0060 C   0  0  0  0  0  0  0  0  0  0  0  0
   51.1530   81.6180   21.0530 O   0  0  0  0  0  0  0  0  0  0  0  0
   52.1170   81.6840   23.1510 N   0  0  0  0  0  0  0  0  0  0  0  0
   52.1790   80.2250   23.1440 C   0  0  0  0  0  0  0  0  0  0  0  0
   53.2050   79.6820   24.1340 C   0  0  0  0  0  0  0  0  0  0  0  0
   52.9690   80.2510   25.5360 C   0  0  0  0  0  0  0  0  0  0  0  0
   54.0290   79.6980   26.5030 C   0  0  0  0  0  0  0  0  0  0  0  0
   53.6510   78.7260   27.2830 N   0  0  0  0  0  0  0  0  0  0  0  0
   54.5610   78.2490   28.1720 C   0  0  0  0  0  0  0  0  0  0  0  0
   54.4530   77.2580   29.1200 C   0  0  0  0  0  0  0  0  0  0  0  0
   55.6990   77.2260   29.7540 C   0  0  0  0  0  0  0  0  0  0  0  0
   56.5530   78.1180   29.2580 N   0  0  0  0  0  0  0  0  0  0  0  0
   55.8600   78.7560   28.2650 N   0  0  0  0  0  0  0  0  0  0  0  0
   56.2970   79.8090   27.4100 C   0  0  0  0  0  0  0  0  0  0  0  0
   57.5970   80.2950   27.5820 N   0  0  0  0  0  0  0  0  0  0  0  0
   58.1750   80.7280   28.8010 C   0  0  0  0  0  0  0  0  0  0  0  0
   58.7280   79.8570   29.7520 C   0  0  0  0  0  0  0  0  0  0  0  0
   59.2420   80.3420   30.9580 C   0  0  0  0  0  0  0  0  0  0  0  0
   59.1950   81.7030   31.2310 C   0  0  0  0  0  0  0  0  0  0  0  0
   59.6960   82.1480   32.3930 F   0  0  0  0  0  0  0  0  0  0  0  0
   58.6320   82.5830   30.3140 C   0  0  0  0  0  0  0  0  0  0  0  0
   58.5600   84.2720   30.6450 Cl  0  0  0  0  0  0  0  0  0  0  0  0
   58.1190   82.0980   29.1080 C   0  0  0  0  0  0  0  0  0  0  0  0
   55.4100   80.3340   26.5250 C   0  0  0  0  0  0  0  0  0  0  0  0
   55.7090   81.4460   25.5650 C   0  0  0  0  0  0  0  0  0  0  0  0
   52.9940   81.7850   25.4690 C   0  0  0  0  0  0  0  0  0  0  0  0
   51.9660   82.3040   24.4710 C   0  0  0  0  0  0  0  0  0  0  0  0
   50.6912   85.9277   22.3633 H   0  0  0  0  0  0  0  0  0  0  0  0
   51.4752   86.5084   20.8550 H   0  0  0  0  0  0  0  0  0  0  0  0
   49.7288   86.0877   20.8550 H   0  0  0  0  0  0  0  0  0  0  0  0
   50.1559   83.9038   20.5095 H   0  0  0  0  0  0  0  0  0  0  0  0
   51.8551   84.4277   20.1365 H   0  0  0  0  0  0  0  0  0  0  0  0
   52.3290   84.0540   22.5290 H   0  0  0  0  0  0  0  0  0  0  0  0
   51.1879   79.8280   23.4089 H   0  0  0  0  0  0  0  0  0  0  0  0
   52.4843   79.9070   22.1362 H   0  0  0  0  0  0  0  0  0  0  0  0
   53.1230   78.5857   24.1722 H   0  0  0  0  0  0  0  0  0  0  0  0
   54.2088   79.9818   23.7984 H   0  0  0  0  0  0  0  0  0  0  0  0
   51.9830   79.9440   25.9148 H   0  0  0  0  0  0  0  0  0  0  0  0
   53.5770   76.6278   29.3330 H   0  0  0  0  0  0  0  0  0  0  0  0
   55.9468   76.5371   30.5750 H   0  0  0  0  0  0  0  0  0  0  0  0
   58.2910   79.8490   26.9920 H   0  0  0  0  0  0  0  0  0  0  0  0
   58.7575   78.7770   29.5455 H   0  0  0  0  0  0  0  0  0  0  0  0
   59.6825   79.6478   31.6888 H   0  0  0  0  0  0  0  0  0  0  0  0
   57.6657   82.7974   28.3901 H   0  0  0  0  0  0  0  0  0  0  0  0
   55.9546   82.3593   26.1268 H   0  0  0  0  0  0  0  0  0  0  0  0
   56.5632   81.1641   24.9319 H   0  0  0  0  0  0  0  0  0  0  0  0
   54.8286   81.6305   24.9319 H   0  0  0  0  0  0  0  0  0  0  0  0
   52.7662   82.1925   26.4650 H   0  0  0  0  0  0  0  0  0  0  0  0
   53.9939   82.1056   25.1414 H   0  0  0  0  0  0  0  0  0  0  0  0
   50.9582   82.0840   24.8530 H   0  0  0  0  0  0  0  0  0  0  0  0
   52.1217   83.3869   24.3565 H   0  0  0  0  0  0  0  0  0  0  0  0
  1  2  1  0
  2  3  1  0
  3  4  1  0
  4  5  2  0
  4  6  1  0
  6  7  1  0
  7  8  1  0
  8  9  1  0
  9 10  1  0
 10 11  2  0
 11 12  1  0
 12 13  2  0
 13 14  1  0
 14 15  2  0
 15 16  1  0
 16 17  1  0
 17 18  1  0
 18 19  1  0
 19 20  1  0
 20 21  2  0
 21 22  1  0
 22 23  1  0
 22 24  2  0
 24 25  1  0
 24 26  1  0
 17 27  2  0
 27 28  1  0
  9 29  1  0
 29 30  1  0
 30  6  1  0
 27 10  1  0
 16 12  1  0
 26 19  2  0
  1 31  1  0
  1 32  1  0
  1 33  1  0
  2 34  1  0
  2 35  1  0
  3 36  1  0
  7 37  1  0
  7 38  1  0
  8 39  1  0
  8 40  1  0
  9 41  1  0
 13 42  1  0
 14 43  1  0
 18 44  1  0
 20 45  1  0
 21 46  1  0
 26 47  1  0
 28 48  1  0
 28 49  1  0
 28 50  1  0
 29 51  1  0
 29 52  1  0
 30 53  1  0
 30 54  1  0
M  END
>  <meeko>  (1) 
{"is_sidechain": false}

>  <smiles>  (1) 
CCNC(=O)N1CCC(c2nc3ccnn3c(Nc3ccc(F)c(Cl)c3)c2C)CC1

>  <vina_score>  (1) 
-8.780

>  <job_id>  (1) 
29b8475eb27a7465

$$$$
