
     RDKit          3D

 40 41  0  0  0  0  0  0  0  0999 V2000
   52.7010   81.7230   24.1610 C   0  0  0  0  0  0  0  0  0  0  0  0
   53.1630   80.4820   24.8340 C   0  0  0  0  0  0  0  0  0  0  0  0
   52.9370   79.2760   24.3530 N   0  0  0  0  0  0  0  0  0  0  0  0
   53.4840   78.4070   25.2480 C   0  0  0  0  0  0  0  0  0  0  0  0
   54.0590   79.0680   26.3160 C   0  0  0  0  0  0  0  0  0  0  0  0
   54.7100   78.5010   27.4950 C   0  0  0  0  0  0  0  0  0  0  0  0
   55.9910   78.8890   27.6870 N   0  0  0  0  0  0  0  0  0  0  0  0
   56.6240   78.4120   28.7680 C   0  0  0  0  0  0  0  0  0  0  0  0
   57.9400   78.7480   29.0220 N   0  0  0  0  0  0  0  0  0  0  0  0
   58.1900   80.0380   29.6520 C   0  0  0  0  0  0  0  0  0  0  0  0
   58.7730   79.8590   31.0540 C   0  0  0  0  0  0  0  0  0  0  0  0
   59.1690   80.8130   28.7710 C   0  0  0  0  0  0  0  0  0  0  0  0
   56.0610   77.5860   29.6630 N   0  0  0  0  0  0  0  0  0  0  0  0
   54.7780   77.2310   29.4440 C   0  0  0  0  0  0  0  0  0  0  0  0
   54.0490   77.6660   28.3700 C   0  0  0  0  0  0  0  0  0  0  0  0
   52.7780   77.2820   28.2000 F   0  0  0  0  0  0  0  0  0  0  0  0
   53.8880   80.4160   26.0130 N   0  0  0  0  0  0  0  0  0  0  0  0
   54.4180   81.5350   26.7960 C   0  0  0  0  0  0  0  0  0  0  0  0
   55.5570   82.2970   26.1130 C   0  0  0  0  0  0  0  0  0  0  0  0
   53.3100   82.4770   27.2680 C   0  0  0  0  0  0  0  0  0  0  0  0
   52.4230   82.4697   24.9194 H   0  0  0  0  0  0  0  0  0  0  0  0
   53.5106   82.1225   23.5326 H   0  0  0  0  0  0  0  0  0  0  0  0
   51.8272   81.4958   23.5326 H   0  0  0  0  0  0  0  0  0  0  0  0
   53.4696   77.3130   25.1342 H   0  0  0  0  0  0  0  0  0  0  0  0
   58.3620   77.9480   29.4820 H   0  0  0  0  0  0  0  0  0  0  0  0
   57.2435   80.5891   29.7542 H   0  0  0  0  0  0  0  0  0  0  0  0
   58.0037   80.0952   31.8039 H   0  0  0  0  0  0  0  0  0  0  0  0
   59.1038   78.8179   31.1834 H   0  0  0  0  0  0  0  0  0  0  0  0
   59.6310   80.5351   31.1834 H   0  0  0  0  0  0  0  0  0  0  0  0
   59.8727   81.3701   29.4070 H   0  0  0  0  0  0  0  0  0  0  0  0
   59.7270   80.1092   28.1359 H   0  0  0  0  0  0  0  0  0  0  0  0
   58.6120   81.5176   28.1359 H   0  0  0  0  0  0  0  0  0  0  0  0
   54.2927   76.5573   30.1656 H   0  0  0  0  0  0  0  0  0  0  0  0
   54.8713   81.0720   27.6849 H   0  0  0  0  0  0  0  0  0  0  0  0
   56.2143   82.7367   26.8776 H   0  0  0  0  0  0  0  0  0  0  0  0
   56.1369   81.6044   25.4853 H   0  0  0  0  0  0  0  0  0  0  0  0
   55.1381   83.0974   25.4853 H   0  0  0  0  0  0  0  0  0  0  0  0
   53.2882   82.4955   28.3676 H   0  0  0  0  0  0  0  0  0  0  0  0
   53.5041   83.4909   26.8880 H   0  0  0  0  0  0  0  0  0  0  0  0
   52.3406   82.1223   26.8880 H   0  0  0  0  0  0  0  0  0  0  0  0
  1  2  1  0
  2  3  2  0
  3  4  1  0
  4  5  2  0
  5  6  1  0
  6  7  2  0
  7  8  1  0
  8  9  1  0
  9 10  1  0
 10 11  1  0
 10 12  1  0
  8 13  2  0
 13 14  1  0
 14 15  2  0
 15 16  1  0
  5 17  1  0
 17 18  1  0
 18 19  1  0
 18 20  1  0
 17  2  1  0
 15  6  1  0
  1 21  1  0
  1 22  1  0
  1 23  1  0
  4 24  1  0
  9 25  1  0
 10 26  1  0
 11 27  1  0
 11 28  1  0
 11 29  1  0
 12 30  1  0
 12 31  1  0
 12 32  1  0
 14 33  1  0
 18 34  1  0
 19 35  1  0
 19 36  1  0
 19 37  1  0
 20 38  1  0
 20 39  1  0
 20 40  1  0
M  END
>  <meeko>  (1) 
{"is_sidechain": false}

>  <smiles>  (1) 
Cc1ncc(-c2nc(NC(C)C)ncc2F)n1C(C)C

>  <vina_score>  (1) 
-7.402

>  <job_id>  (1) 
29b94d4d92e80009

$$$$
