
     RDKit          3D

 61 65  0  0  0  0  0  0  0  0999 V2000
   62.2000   81.7720   34.3500 C   0  0  0  0  0  0  0  0  0  0  0  0
   62.5110   82.1130   32.8880 C   0  0  0  0  0  0  0  0  0  0  0  0
   64.0180   81.8450   32.6180 C   0  0  0  0  0  0  0  0  0  0  0  0
   64.4040   82.0770   31.2140 N   0  0  0  0  0  0  0  0  0  0  0  0
   65.8520   82.2110   31.0890 C   0  0  0  0  0  0  0  0  0  0  0  0
   63.6900   83.2340   30.6450 C   0  0  0  0  0  0  0  0  0  0  0  0
   63.0740   84.1800   31.6940 C   0  0  0  0  0  0  0  0  0  0  0  0
   62.1060   83.5140   32.5900 N   0  0  0  0  0  0  0  0  0  0  0  0
   60.4780   83.8850   32.4520 S   0  0  0  0  0  0  0  0  0  0  0  0
   59.8690   82.4790   31.5340 C   0  0  0  0  0  0  0  0  0  0  0  0
   59.0620   81.5420   32.1790 C   0  0  0  0  0  0  0  0  0  0  0  0
   58.5630   80.4360   31.4780 C   0  0  0  0  0  0  0  0  0  0  0  0
   58.8480   80.2390   30.1180 C   0  0  0  0  0  0  0  0  0  0  0  0
   58.3260   79.1070   29.4840 N   0  0  0  0  0  0  0  0  0  0  0  0
   57.0610   78.7490   29.0240 C   0  0  0  0  0  0  0  0  0  0  0  0
   56.4100   77.6750   29.4990 N   0  0  0  0  0  0  0  0  0  0  0  0
   55.1920   77.3980   28.9970 C   0  0  0  0  0  0  0  0  0  0  0  0
   54.5960   78.1500   28.0190 C   0  0  0  0  0  0  0  0  0  0  0  0
   55.3420   79.2430   27.6080 C   0  0  0  0  0  0  0  0  0  0  0  0
   56.5570   79.5620   28.0810 N   0  0  0  0  0  0  0  0  0  0  0  0
   54.7720   80.0810   26.5710 C   0  0  0  0  0  0  0  0  0  0  0  0
   53.6410   79.7390   25.8550 C   0  0  0  0  0  0  0  0  0  0  0  0
   53.4190   80.8090   24.9550 C   0  0  0  0  0  0  0  0  0  0  0  0
   52.3510   80.9340   23.9510 C   0  0  0  0  0  0  0  0  0  0  0  0
   52.8030   80.9890   22.6620 N   0  0  0  0  0  0  0  0  0  0  0  0
   51.1550   80.9820   24.2180 O   0  0  0  0  0  0  0  0  0  0  0  0
   54.3590   81.7680   25.1140 N   0  0  0  0  0  0  0  0  0  0  0  0
   55.1650   81.2950   26.0940 N   0  0  0  0  0  0  0  0  0  0  0  0
   56.2930   82.0910   26.5210 C   0  0  0  0  0  0  0  0  0  0  0  0
   52.9340   78.4460   26.0740 C   0  0  0  0  0  0  0  0  0  0  0  0
   53.2030   77.8910   27.4970 C   0  0  0  0  0  0  0  0  0  0  0  0
   59.6550   81.1880   29.4850 C   0  0  0  0  0  0  0  0  0  0  0  0
   60.1560   82.2980   30.1810 C   0  0  0  0  0  0  0  0  0  0  0  0
   62.7921   82.4212   35.0119 H   0  0  0  0  0  0  0  0  0  0  0  0
   61.1288   81.9303   34.5436 H   0  0  0  0  0  0  0  0  0  0  0  0
   62.4560   80.7199   34.5436 H   0  0  0  0  0  0  0  0  0  0  0  0
   61.9307   81.4720   32.2080 H   0  0  0  0  0  0  0  0  0  0  0  0
   64.6127   82.5121   33.2594 H   0  0  0  0  0  0  0  0  0  0  0  0
   64.2074   80.7843   32.8394 H   0  0  0  0  0  0  0  0  0  0  0  0
   66.3042   82.2528   32.0909 H   0  0  0  0  0  0  0  0  0  0  0  0
   66.2543   81.3462   30.5410 H   0  0  0  0  0  0  0  0  0  0  0  0
   66.0888   83.1349   30.5410 H   0  0  0  0  0  0  0  0  0  0  0  0
   64.4010   83.8116   30.0360 H   0  0  0  0  0  0  0  0  0  0  0  0
   62.8530   82.8287   30.0575 H   0  0  0  0  0  0  0  0  0  0  0  0
   63.8866   84.5969   32.3071 H   0  0  0  0  0  0  0  0  0  0  0  0
   62.5247   84.9591   31.1451 H   0  0  0  0  0  0  0  0  0  0  0  0
   58.8160   81.6718   33.2433 H   0  0  0  0  0  0  0  0  0  0  0  0
   57.9331   79.7050   32.0061 H   0  0  0  0  0  0  0  0  0  0  0  0
   58.9560   78.3330   29.3450 H   0  0  0  0  0  0  0  0  0  0  0  0
   54.6492   76.5261   29.3909 H   0  0  0  0  0  0  0  0  0  0  0  0
   53.8000   80.9100   22.4990 H   0  0  0  0  0  0  0  0  0  0  0  0
   52.1460   81.0380   21.8990 H   0  0  0  0  0  0  0  0  0  0  0  0
   56.3288   82.1163   27.6201 H   0  0  0  0  0  0  0  0  0  0  0  0
   57.2222   81.6475   26.1340 H   0  0  0  0  0  0  0  0  0  0  0  0
   56.1865   83.1151   26.1340 H   0  0  0  0  0  0  0  0  0  0  0  0
   51.8525   78.6033   25.9492 H   0  0  0  0  0  0  0  0  0  0  0  0
   53.3083   77.7169   25.3403 H   0  0  0  0  0  0  0  0  0  0  0  0
   52.4853   78.3567   28.1884 H   0  0  0  0  0  0  0  0  0  0  0  0
   53.0922   76.7985   27.4320 H   0  0  0  0  0  0  0  0  0  0  0  0
   59.9021   81.0622   28.4205 H   0  0  0  0  0  0  0  0  0  0  0  0
   60.7818   83.0335   29.6543 H   0  0  0  0  0  0  0  0  0  0  0  0
  1  2  1  0
  2  3  1  0
  3  4  1  0
  4  5  1  0
  4  6  1  0
  6  7  1  0
  7  8  1  0
  8  9  1  0
  9 10  1  0
 10 11  1  0
 11 12  2  0
 12 13  1  0
 13 14  1  0
 14 15  1  0
 15 16  2  0
 16 17  1  0
 17 18  2  0
 18 19  1  0
 19 20  2  0
 19 21  1  0
 21 22  2  0
 22 23  1  0
 23 24  1  0
 24 25  1  0
 24 26  2  0
 23 27  2  0
 27 28  1  0
 28 29  1  0
 22 30  1  0
 30 31  1  0
 13 32  2  0
 32 33  1  0
  8  2  1  0
 33 10  2  0
 20 15  1  0
 28 21  1  0
 31 18  1  0
  1 34  1  0
  1 35  1  0
  1 36  1  0
  2 37  1  0
  3 38  1  0
  3 39  1  0
  5 40  1  0
  5 41  1  0
  5 42  1  0
  6 43  1  0
  6 44  1  0
  7 45  1  0
  7 46  1  0
 11 47  1  0
 12 48  1  0
 14 49  1  0
 17 50  1  0
 25 51  1  0
 25 52  1  0
 29 53  1  0
 29 54  1  0
 29 55  1  0
 30 56  1  0
 30 57  1  0
 31 58  1  0
 31 59  1  0
 32 60  1  0
 33 61  1  0
M  END
>  <meeko>  (1) 
{"is_sidechain": false}

>  <smiles>  (1) 
CC1CN(C)CCN1Sc1ccc(Nc2ncc3c(n2)-c2c(c(C(N)=O)nn2C)CC3)cc1

>  <vina_score>  (1) 
-9.828

>  <job_id>  (1) 
29e108b9fb714c2e

$$$$
