
     RDKit          3D

 50 53  0  0  0  0  0  0  0  0999 V2000
   54.4360   75.4180   28.7700 C   0  0  0  0  0  0  0  0  0  0  0  0
   53.3550   76.4380   28.4080 C   0  0  0  0  0  0  0  0  0  0  0  0
   52.2440   75.7800   27.5870 C   0  0  0  0  0  0  0  0  0  0  0  0
   53.9260   77.6390   27.7160 C   0  0  0  0  0  0  0  0  0  0  0  0
   53.4040   78.2980   26.5730 C   0  0  0  0  0  0  0  0  0  0  0  0
   54.1430   79.3390   26.1830 N   0  0  0  0  0  0  0  0  0  0  0  0
   55.1400   79.3610   27.0930 N   0  0  0  0  0  0  0  0  0  0  0  0
   56.1970   80.2820   27.1220 C   0  0  0  0  0  0  0  0  0  0  0  0
   56.3100   81.2960   26.1920 N   0  0  0  0  0  0  0  0  0  0  0  0
   55.3640   82.3270   25.9840 C   0  0  0  0  0  0  0  0  0  0  0  0
   55.5940   83.5710   26.5820 C   0  0  0  0  0  0  0  0  0  0  0  0
   54.6930   84.6200   26.4040 C   0  0  0  0  0  0  0  0  0  0  0  0
   53.5740   84.3960   25.6220 C   0  0  0  0  0  0  0  0  0  0  0  0
   53.3090   83.2200   25.0200 N   0  0  0  0  0  0  0  0  0  0  0  0
   54.2140   82.2250   25.2020 C   0  0  0  0  0  0  0  0  0  0  0  0
   57.1260   80.1280   28.0270 N   0  0  0  0  0  0  0  0  0  0  0  0
   57.0100   79.1070   28.9460 C   0  0  0  0  0  0  0  0  0  0  0  0
   57.9660   78.9670   29.9090 N   0  0  0  0  0  0  0  0  0  0  0  0
   58.8740   80.0310   30.3130 C   0  0  0  0  0  0  0  0  0  0  0  0
   59.1290   80.9630   29.1270 C   0  0  0  0  0  0  0  0  0  0  0  0
   60.0700   82.1040   29.5240 C   0  0  0  0  0  0  0  0  0  0  0  0
   59.9010   82.5670   30.9010 N   0  0  0  0  0  0  0  0  0  0  0  0
   58.5600   82.3150   31.4120 C   0  0  0  0  0  0  0  0  0  0  0  0
   58.2920   80.8140   31.5030 C   0  0  0  0  0  0  0  0  0  0  0  0
   56.0260   78.2440   28.9740 N   0  0  0  0  0  0  0  0  0  0  0  0
   55.0670   78.3570   28.0200 C   0  0  0  0  0  0  0  0  0  0  0  0
   54.5166   75.3419   29.8644 H   0  0  0  0  0  0  0  0  0  0  0  0
   54.1680   74.4360   28.3530 H   0  0  0  0  0  0  0  0  0  0  0  0
   55.4008   75.7425   28.3530 H   0  0  0  0  0  0  0  0  0  0  0  0
   52.9099   76.8021   29.3457 H   0  0  0  0  0  0  0  0  0  0  0  0
   51.4990   75.3388   28.2654 H   0  0  0  0  0  0  0  0  0  0  0  0
   51.7595   76.5369   26.9527 H   0  0  0  0  0  0  0  0  0  0  0  0
   52.6748   74.9913   26.9527 H   0  0  0  0  0  0  0  0  0  0  0  0
   52.4833   77.9829   26.0601 H   0  0  0  0  0  0  0  0  0  0  0  0
   57.2390   81.7060   26.2290 H   0  0  0  0  0  0  0  0  0  0  0  0
   56.4930   83.7225   27.1975 H   0  0  0  0  0  0  0  0  0  0  0  0
   54.8673   85.5997   26.8729 H   0  0  0  0  0  0  0  0  0  0  0  0
   52.8618   85.2229   25.4842 H   0  0  0  0  0  0  0  0  0  0  0  0
   54.0263   81.2670   24.6950 H   0  0  0  0  0  0  0  0  0  0  0  0
   57.6710   78.3230   30.6310 H   0  0  0  0  0  0  0  0  0  0  0  0
   59.8289   79.5882   30.6325 H   0  0  0  0  0  0  0  0  0  0  0  0
   59.5853   80.3877   28.3080 H   0  0  0  0  0  0  0  0  0  0  0  0
   58.1695   81.3936   28.8045 H   0  0  0  0  0  0  0  0  0  0  0  0
   61.1061   81.7554   29.4017 H   0  0  0  0  0  0  0  0  0  0  0  0
   59.8279   82.9558   28.8715 H   0  0  0  0  0  0  0  0  0  0  0  0
   60.1230   83.5620   30.9600 H   0  0  0  0  0  0  0  0  0  0  0  0
   58.4652   82.7604   32.4133 H   0  0  0  0  0  0  0  0  0  0  0  0
   57.8285   82.7646   30.7244 H   0  0  0  0  0  0  0  0  0  0  0  0
   58.7442   80.4318   32.4301 H   0  0  0  0  0  0  0  0  0  0  0  0
   57.2014   80.6711   31.4918 H   0  0  0  0  0  0  0  0  0  0  0  0
  1  2  1  0
  2  3  1  0
  2  4  1  0
  4  5  1  0
  5  6  2  0
  6  7  1  0
  7  8  1  0
  8  9  1  0
  9 10  1  0
 10 11  1  0
 11 12  2  0
 12 13  1  0
 13 14  2  0
 14 15  1  0
  8 16  2  0
 16 17  1  0
 17 18  1  0
 18 19  1  0
 19 20  1  0
 20 21  1  0
 21 22  1  0
 22 23  1  0
 23 24  1  0
 17 25  2  0
 25 26  1  0
 26  4  2  0
 26  7  1  0
 15 10  2  0
 24 19  1  0
  1 27  1  0
  1 28  1  0
  1 29  1  0
  2 30  1  0
  3 31  1  0
  3 32  1  0
  3 33  1  0
  5 34  1  0
  9 35  1  0
 11 36  1  0
 12 37  1  0
 13 38  1  0
 15 39  1  0
 18 40  1  0
 19 41  1  0
 20 42  1  0
 20 43  1  0
 21 44  1  0
 21 45  1  0
 22 46  1  0
 23 47  1  0
 23 48  1  0
 24 49  1  0
 24 50  1  0
M  END
>  <meeko>  (1) 
{"is_sidechain": false}

>  <smiles>  (1) 
CC(C)c1cnn2c(Nc3cccnc3)nc(NC3CCNCC3)nc12

>  <vina_score>  (1) 
-9.213

>  <job_id>  (1) 
2a419cb4b0059d05

$$$$
