
     RDKit          3D

 41 42  0  0  0  0  0  0  0  0999 V2000
   59.7030   81.6780   29.1450 C   0  0  0  0  0  0  0  0  0  0  0  0
   59.3060   80.4190   29.9030 C   0  0  0  0  0  0  0  0  0  0  0  0
   58.8630   79.4010   28.9500 N   0  0  0  0  0  0  0  0  0  0  0  0
   57.5170   78.8600   29.2070 C   0  0  0  0  0  0  0  0  0  0  0  0
   57.0560   79.1350   30.6460 C   0  0  0  0  0  0  0  0  0  0  0  0
   56.5220   79.2160   28.1090 C   0  0  0  0  0  0  0  0  0  0  0  0
   56.8320   80.2700   27.2340 C   0  0  0  0  0  0  0  0  0  0  0  0
   55.9560   80.6410   26.2080 C   0  0  0  0  0  0  0  0  0  0  0  0
   54.7380   79.9720   26.0210 C   0  0  0  0  0  0  0  0  0  0  0  0
   53.8140   80.3620   24.9430 C   0  0  0  0  0  0  0  0  0  0  0  0
   53.5040   81.7150   24.7110 C   0  0  0  0  0  0  0  0  0  0  0  0
   52.6260   82.0910   23.6910 C   0  0  0  0  0  0  0  0  0  0  0  0
   52.0530   81.1080   22.8830 C   0  0  0  0  0  0  0  0  0  0  0  0
   50.9340   81.5660   21.5860 S   0  0  0  0  0  0  0  0  0  0  0  0
   49.4430   81.2440   22.3020 N   0  0  0  0  0  0  0  0  0  0  0  0
   51.0600   80.6110   20.5090 O   0  0  0  0  0  0  0  0  0  0  0  0
   51.0320   82.9920   21.3800 O   0  0  0  0  0  0  0  0  0  0  0  0
   52.3330   79.7570   23.0980 C   0  0  0  0  0  0  0  0  0  0  0  0
   53.2120   79.3930   24.1220 C   0  0  0  0  0  0  0  0  0  0  0  0
   54.4280   78.9220   26.8980 C   0  0  0  0  0  0  0  0  0  0  0  0
   55.3030   78.5510   27.9270 C   0  0  0  0  0  0  0  0  0  0  0  0
   59.9539   82.4738   29.8618 H   0  0  0  0  0  0  0  0  0  0  0  0
   60.5775   81.4649   28.5127 H   0  0  0  0  0  0  0  0  0  0  0  0
   58.8644   82.0051   28.5127 H   0  0  0  0  0  0  0  0  0  0  0  0
   60.1712   80.0419   30.4680 H   0  0  0  0  0  0  0  0  0  0  0  0
   58.4883   80.6513   30.6011 H   0  0  0  0  0  0  0  0  0  0  0  0
   59.5320   78.6320   28.9460 H   0  0  0  0  0  0  0  0  0  0  0  0
   57.5725   77.7630   29.1479 H   0  0  0  0  0  0  0  0  0  0  0  0
   57.7804   78.7029   31.3520 H   0  0  0  0  0  0  0  0  0  0  0  0
   56.9888   80.2209   30.8083 H   0  0  0  0  0  0  0  0  0  0  0  0
   56.0686   78.6782   30.8083 H   0  0  0  0  0  0  0  0  0  0  0  0
   57.7804   80.8135   27.3575 H   0  0  0  0  0  0  0  0  0  0  0  0
   56.2270   81.4702   25.5379 H   0  0  0  0  0  0  0  0  0  0  0  0
   53.9609   82.4902   25.3437 H   0  0  0  0  0  0  0  0  0  0  0  0
   52.3886   83.1524   23.5264 H   0  0  0  0  0  0  0  0  0  0  0  0
   48.6930   81.1070   21.6260 H   0  0  0  0  0  0  0  0  0  0  0  0
   49.2300   81.9910   22.9660 H   0  0  0  0  0  0  0  0  0  0  0  0
   51.8661   78.9862   22.4672 H   0  0  0  0  0  0  0  0  0  0  0  0
   53.4366   78.3291   24.2883 H   0  0  0  0  0  0  0  0  0  0  0  0
   53.4791   78.3793   26.7752 H   0  0  0  0  0  0  0  0  0  0  0  0
   55.0290   77.7262   28.6012 H   0  0  0  0  0  0  0  0  0  0  0  0
  1  2  1  0
  2  3  1  0
  3  4  1  0
  4  5  1  0
  4  6  1  0
  6  7  1  0
  7  8  2  0
  8  9  1  0
  9 10  1  0
 10 11  1  0
 11 12  2  0
 12 13  1  0
 13 14  1  0
 14 15  1  0
 14 16  2  0
 14 17  2  0
 13 18  2  0
 18 19  1  0
  9 20  2  0
 20 21  1  0
 21  6  2  0
 19 10  2  0
  1 22  1  0
  1 23  1  0
  1 24  1  0
  2 25  1  0
  2 26  1  0
  3 27  1  0
  4 28  1  0
  5 29  1  0
  5 30  1  0
  5 31  1  0
  7 32  1  0
  8 33  1  0
 11 34  1  0
 12 35  1  0
 15 36  1  0
 15 37  1  0
 18 38  1  0
 19 39  1  0
 20 40  1  0
 21 41  1  0
M  END
>  <meeko>  (1) 
{"is_sidechain": false}

>  <smiles>  (1) 
CCNC(C)c1ccc(-c2ccc(S(N)(=O)=O)cc2)cc1

>  <vina_score>  (1) 
-7.684

>  <job_id>  (1) 
2a7fc406b44eb094

$$$$
