
     RDKit          3D

 43 45  0  0  0  0  0  0  0  0999 V2000
   59.2790   81.1040   28.9680 C   0  0  0  0  0  0  0  0  0  0  0  0
   58.9350   79.8870   29.8250 C   0  0  0  0  0  0  0  0  0  0  0  0
   58.9720   80.2330   31.3130 C   0  0  0  0  0  0  0  0  0  0  0  0
   57.5880   79.3180   29.4370 C   0  0  0  0  0  0  0  0  0  0  0  0
   57.0750   78.3540   30.2220 N   0  0  0  0  0  0  0  0  0  0  0  0
   55.8770   77.8610   29.8630 C   0  0  0  0  0  0  0  0  0  0  0  0
   55.1800   78.2790   28.7500 C   0  0  0  0  0  0  0  0  0  0  0  0
   55.7740   79.2890   28.0110 C   0  0  0  0  0  0  0  0  0  0  0  0
   56.9820   79.8060   28.3370 N   0  0  0  0  0  0  0  0  0  0  0  0
   55.1050   79.8410   26.7620 C   0  0  0  0  0  0  0  0  0  0  0  0
   53.7110   79.3640   26.5740 N   0  0  0  0  0  0  0  0  0  0  0  0
   53.1200   79.8530   25.3970 C   0  0  0  0  0  0  0  0  0  0  0  0
   52.4180   81.0710   25.4370 C   0  0  0  0  0  0  0  0  0  0  0  0
   51.8030   81.6050   24.3000 C   0  0  0  0  0  0  0  0  0  0  0  0
   51.8890   80.9160   23.0910 C   0  0  0  0  0  0  0  0  0  0  0  0
   51.1070   81.5870   21.6500 S   0  0  0  0  0  0  0  0  0  0  0  0
   49.4780   81.3570   22.0140 N   0  0  0  0  0  0  0  0  0  0  0  0
   51.3030   83.0190   21.6450 O   0  0  0  0  0  0  0  0  0  0  0  0
   51.4350   80.7520   20.5200 O   0  0  0  0  0  0  0  0  0  0  0  0
   52.5610   79.6970   23.0210 C   0  0  0  0  0  0  0  0  0  0  0  0
   53.1690   79.1750   24.1690 C   0  0  0  0  0  0  0  0  0  0  0  0
   53.5160   77.9460   26.9110 C   0  0  0  0  0  0  0  0  0  0  0  0
   53.8360   77.7280   28.3930 C   0  0  0  0  0  0  0  0  0  0  0  0
   59.5198   81.9559   29.6209 H   0  0  0  0  0  0  0  0  0  0  0  0
   60.1467   80.8719   28.3330 H   0  0  0  0  0  0  0  0  0  0  0  0
   58.4182   81.3605   28.3330 H   0  0  0  0  0  0  0  0  0  0  0  0
   59.6981   79.1169   29.6390 H   0  0  0  0  0  0  0  0  0  0  0  0
   58.8735   79.3119   31.9062 H   0  0  0  0  0  0  0  0  0  0  0  0
   59.9276   80.7226   31.5520 H   0  0  0  0  0  0  0  0  0  0  0  0
   58.1415   80.9136   31.5520 H   0  0  0  0  0  0  0  0  0  0  0  0
   55.4275   77.0796   30.4934 H   0  0  0  0  0  0  0  0  0  0  0  0
   55.0906   80.9387   26.8315 H   0  0  0  0  0  0  0  0  0  0  0  0
   55.6872   79.4840   25.8996 H   0  0  0  0  0  0  0  0  0  0  0  0
   52.3508   81.6187   26.3886 H   0  0  0  0  0  0  0  0  0  0  0  0
   51.2574   82.5583   24.3590 H   0  0  0  0  0  0  0  0  0  0  0  0
   49.3100   81.1600   22.9990 H   0  0  0  0  0  0  0  0  0  0  0  0
   48.9510   82.1690   21.6890 H   0  0  0  0  0  0  0  0  0  0  0  0
   52.6134   79.1481   22.0692 H   0  0  0  0  0  0  0  0  0  0  0  0
   53.6969   78.2120   24.1072 H   0  0  0  0  0  0  0  0  0  0  0  0
   52.4714   77.6623   26.7153 H   0  0  0  0  0  0  0  0  0  0  0  0
   54.1842   77.3261   26.2952 H   0  0  0  0  0  0  0  0  0  0  0  0
   53.0702   78.2309   29.0018 H   0  0  0  0  0  0  0  0  0  0  0  0
   53.8433   76.6456   28.5891 H   0  0  0  0  0  0  0  0  0  0  0  0
  1  2  1  0
  2  3  1  0
  2  4  1  0
  4  5  2  0
  5  6  1  0
  6  7  2  0
  7  8  1  0
  8  9  2  0
  8 10  1  0
 10 11  1  0
 11 12  1  0
 12 13  1  0
 13 14  2  0
 14 15  1  0
 15 16  1  0
 16 17  1  0
 16 18  2  0
 16 19  2  0
 15 20  2  0
 20 21  1  0
 11 22  1  0
 22 23  1  0
  9  4  1  0
 21 12  2  0
 23  7  1  0
  1 24  1  0
  1 25  1  0
  1 26  1  0
  2 27  1  0
  3 28  1  0
  3 29  1  0
  3 30  1  0
  6 31  1  0
 10 32  1  0
 10 33  1  0
 13 34  1  0
 14 35  1  0
 17 36  1  0
 17 37  1  0
 20 38  1  0
 21 39  1  0
 22 40  1  0
 22 41  1  0
 23 42  1  0
 23 43  1  0
M  END
>  <meeko>  (1) 
{"is_sidechain": false}

>  <smiles>  (1) 
CC(C)c1ncc2c(n1)CN(c1ccc(S(N)(=O)=O)cc1)CC2

>  <vina_score>  (1) 
-8.270

>  <job_id>  (1) 
2a9977096e68afa5

$$$$
