
     RDKit          3D

 59 63  0  0  0  0  0  0  0  0999 V2000
   52.8830   81.4200   23.0130 C   0  0  0  0  0  0  0  0  0  0  0  0
   52.4100   81.4210   24.3530 O   0  0  0  0  0  0  0  0  0  0  0  0
   52.9780   80.5350   25.2300 C   0  0  0  0  0  0  0  0  0  0  0  0
   53.2300   79.1910   24.9480 C   0  0  0  0  0  0  0  0  0  0  0  0
   53.8190   78.3580   25.9090 C   0  0  0  0  0  0  0  0  0  0  0  0
   54.1620   78.8450   27.1750 C   0  0  0  0  0  0  0  0  0  0  0  0
   54.7800   77.9890   28.1780 C   0  0  0  0  0  0  0  0  0  0  0  0
   54.0140   76.9210   28.5820 O   0  0  0  0  0  0  0  0  0  0  0  0
   54.7660   76.2920   29.5210 C   0  0  0  0  0  0  0  0  0  0  0  0
   55.9340   76.8390   29.7570 N   0  0  0  0  0  0  0  0  0  0  0  0
   55.9680   77.9320   28.8910 C   0  0  0  0  0  0  0  0  0  0  0  0
   57.1350   78.8080   28.8020 C   0  0  0  0  0  0  0  0  0  0  0  0
   57.7210   79.0270   27.7490 O   0  0  0  0  0  0  0  0  0  0  0  0
   57.4610   79.3290   30.0290 N   0  0  0  0  0  0  0  0  0  0  0  0
   58.4960   80.1910   30.3710 C   0  0  0  0  0  0  0  0  0  0  0  0
   58.8950   80.4560   31.6690 C   0  0  0  0  0  0  0  0  0  0  0  0
   59.9550   81.3460   31.8840 C   0  0  0  0  0  0  0  0  0  0  0  0
   60.6160   81.9700   30.8230 C   0  0  0  0  0  0  0  0  0  0  0  0
   61.6600   82.8550   31.0190 N   0  0  0  0  0  0  0  0  0  0  0  0
   63.0560   82.3920   31.1140 C   0  0  0  0  0  0  0  0  0  0  0  0
   64.0420   83.4880   30.6450 C   0  0  0  0  0  0  0  0  0  0  0  0
   63.9400   84.7260   31.4290 N   0  0  0  0  0  0  0  0  0  0  0  0
   64.7040   85.8450   30.8870 C   0  0  0  0  0  0  0  0  0  0  0  0
   65.3690   85.5720   29.5690 C   0  0  0  0  0  0  0  0  0  0  0  0
   66.2980   86.5770   28.9340 C   0  0  0  0  0  0  0  0  0  0  0  0
   64.9350   86.3460   28.3490 C   0  0  0  0  0  0  0  0  0  0  0  0
   62.5580   85.0450   31.8180 C   0  0  0  0  0  0  0  0  0  0  0  0
   61.4510   84.3130   31.0180 C   0  0  0  0  0  0  0  0  0  0  0  0
   60.1190   81.6240   29.5630 C   0  0  0  0  0  0  0  0  0  0  0  0
   59.0940   80.7650   29.3120 N   0  0  0  0  0  0  0  0  0  0  0  0
   53.9180   80.1960   27.4540 C   0  0  0  0  0  0  0  0  0  0  0  0
   53.3320   81.0290   26.4940 C   0  0  0  0  0  0  0  0  0  0  0  0
   53.0610   82.6840   26.9230 Cl  0  0  0  0  0  0  0  0  0  0  0  0
   53.9830   81.4177   23.0124 H   0  0  0  0  0  0  0  0  0  0  0  0
   52.5142   80.5226   22.4946 H   0  0  0  0  0  0  0  0  0  0  0  0
   52.5180   82.3189   22.4946 H   0  0  0  0  0  0  0  0  0  0  0  0
   52.9637   78.7820   23.9622 H   0  0  0  0  0  0  0  0  0  0  0  0
   54.0149   77.3037   25.6638 H   0  0  0  0  0  0  0  0  0  0  0  0
   54.4206   75.3890   30.0457 H   0  0  0  0  0  0  0  0  0  0  0  0
   56.8780   79.0530   30.8140 H   0  0  0  0  0  0  0  0  0  0  0  0
   58.3879   79.9754   32.5186 H   0  0  0  0  0  0  0  0  0  0  0  0
   60.2752   81.5591   32.9146 H   0  0  0  0  0  0  0  0  0  0  0  0
   63.2779   82.1335   32.1599 H   0  0  0  0  0  0  0  0  0  0  0  0
   63.1766   81.5133   30.4633 H   0  0  0  0  0  0  0  0  0  0  0  0
   65.0670   83.0993   30.7356 H   0  0  0  0  0  0  0  0  0  0  0  0
   63.7871   83.7360   29.6041 H   0  0  0  0  0  0  0  0  0  0  0  0
   64.0189   86.6955   30.7552 H   0  0  0  0  0  0  0  0  0  0  0  0
   65.5116   86.0465   31.6061 H   0  0  0  0  0  0  0  0  0  0  0  0
   65.4586   84.5105   29.8433 H   0  0  0  0  0  0  0  0  0  0  0  0
   66.5213   87.5221   29.4507 H   0  0  0  0  0  0  0  0  0  0  0  0
   67.3261   86.5465   28.5441 H   0  0  0  0  0  0  0  0  0  0  0  0
   64.1604   87.1220   28.4373 H   0  0  0  0  0  0  0  0  0  0  0  0
   64.5524   86.0765   27.3535 H   0  0  0  0  0  0  0  0  0  0  0  0
   62.4366   84.7844   32.8798 H   0  0  0  0  0  0  0  0  0  0  0  0
   62.4251   86.1159   31.6047 H   0  0  0  0  0  0  0  0  0  0  0  0
   60.4746   84.5346   31.4736 H   0  0  0  0  0  0  0  0  0  0  0  0
   61.4860   84.6664   29.9769 H   0  0  0  0  0  0  0  0  0  0  0  0
   60.6024   82.0904   28.6919 H   0  0  0  0  0  0  0  0  0  0  0  0
   54.1898   80.6064   28.4377 H   0  0  0  0  0  0  0  0  0  0  0  0
  1  2  1  0
  2  3  1  0
  3  4  1  0
  4  5  2  0
  5  6  1  0
  6  7  1  0
  7  8  1  0
  8  9  1  0
  9 10  2  0
 10 11  1  0
 11 12  1  0
 12 13  2  0
 12 14  1  0
 14 15  1  0
 15 16  2  0
 16 17  1  0
 17 18  2  0
 18 19  1  0
 19 20  1  0
 20 21  1  0
 21 22  1  0
 22 23  1  0
 23 24  1  0
 24 25  1  0
 25 26  1  0
 22 27  1  0
 27 28  1  0
 18 29  1  0
 29 30  2  0
  6 31  2  0
 31 32  1  0
 32 33  1  0
 32  3  2  0
 11  7  2  0
 30 15  1  0
 28 19  1  0
 26 24  1  0
  1 34  1  0
  1 35  1  0
  1 36  1  0
  4 37  1  0
  5 38  1  0
  9 39  1  0
 14 40  1  0
 16 41  1  0
 17 42  1  0
 20 43  1  0
 20 44  1  0
 21 45  1  0
 21 46  1  0
 23 47  1  0
 23 48  1  0
 24 49  1  0
 25 50  1  0
 25 51  1  0
 26 52  1  0
 26 53  1  0
 27 54  1  0
 27 55  1  0
 28 56  1  0
 28 57  1  0
 29 58  1  0
 31 59  1  0
M  END
>  <meeko>  (1) 
{"is_sidechain": false}

>  <smiles>  (1) 
COc1ccc(-c2ocnc2C(=O)Nc2ccc(N3CCN(CC4CC4)CC3)cn2)cc1Cl

>  <vina_score>  (1) 
-8.879

>  <job_id>  (1) 
2ae730f741be58c9

$$$$
