
     RDKit          3D

 43 45  0  0  0  0  0  0  0  0999 V2000
   52.3480   75.7470   27.6620 C   0  0  0  0  0  0  0  0  0  0  0  0
   53.0850   76.9610   28.0010 N   0  0  0  0  0  0  0  0  0  0  0  0
   53.0150   77.9770   26.9490 C   0  0  0  0  0  0  0  0  0  0  0  0
   53.8260   79.2490   27.1570 C   0  0  0  0  0  0  0  0  0  0  0  0
   55.3360   79.0560   27.0480 C   0  0  0  0  0  0  0  0  0  0  0  0
   55.9440   78.7150   28.3330 N   0  0  0  0  0  0  0  0  0  0  0  0
   57.0670   79.3760   28.8200 C   0  0  0  0  0  0  0  0  0  0  0  0
   57.8130   80.2560   28.0200 C   0  0  0  0  0  0  0  0  0  0  0  0
   58.9480   80.9380   28.4920 C   0  0  0  0  0  0  0  0  0  0  0  0
   59.3810   80.7610   29.8000 C   0  0  0  0  0  0  0  0  0  0  0  0
   60.5100   81.3950   30.3600 N   0  0  0  0  0  0  0  0  0  0  0  0
   60.6320   82.7170   30.7440 C   0  0  0  0  0  0  0  0  0  0  0  0
   59.7410   83.5580   30.7020 O   0  0  0  0  0  0  0  0  0  0  0  0
   61.9660   83.0740   31.2620 C   0  0  0  0  0  0  0  0  0  0  0  0
   63.2200   82.3870   31.0830 C   0  0  0  0  0  0  0  0  0  0  0  0
   64.2720   83.0140   31.7150 C   0  0  0  0  0  0  0  0  0  0  0  0
   63.7780   84.4360   32.5200 S   0  0  0  0  0  0  0  0  0  0  0  0
   62.1610   84.2190   32.0190 C   0  0  0  0  0  0  0  0  0  0  0  0
   58.6620   79.8920   30.6190 C   0  0  0  0  0  0  0  0  0  0  0  0
   57.5270   79.2180   30.1360 C   0  0  0  0  0  0  0  0  0  0  0  0
   55.2200   77.7690   29.2180 C   0  0  0  0  0  0  0  0  0  0  0  0
   54.4430   76.6440   28.4850 C   0  0  0  0  0  0  0  0  0  0  0  0
   52.0380   75.2363   28.5856 H   0  0  0  0  0  0  0  0  0  0  0  0
   51.4577   76.0111   27.0725 H   0  0  0  0  0  0  0  0  0  0  0  0
   52.9931   75.0790   27.0725 H   0  0  0  0  0  0  0  0  0  0  0  0
   53.3629   77.5113   26.0151 H   0  0  0  0  0  0  0  0  0  0  0  0
   51.9657   78.3069   26.9419 H   0  0  0  0  0  0  0  0  0  0  0  0
   53.5168   79.9827   26.3980 H   0  0  0  0  0  0  0  0  0  0  0  0
   53.6249   79.5863   28.1845 H   0  0  0  0  0  0  0  0  0  0  0  0
   55.5386   78.2442   26.3339 H   0  0  0  0  0  0  0  0  0  0  0  0
   55.7740   80.0064   26.7091 H   0  0  0  0  0  0  0  0  0  0  0  0
   57.4958   80.4188   26.9794 H   0  0  0  0  0  0  0  0  0  0  0  0
   59.4966   81.6159   27.8215 H   0  0  0  0  0  0  0  0  0  0  0  0
   61.2970   80.7930   30.5420 H   0  0  0  0  0  0  0  0  0  0  0  0
   63.3265   81.4588   30.5024 H   0  0  0  0  0  0  0  0  0  0  0  0
   65.3072   82.6423   31.7022 H   0  0  0  0  0  0  0  0  0  0  0  0
   61.3518   84.9198   32.2722 H   0  0  0  0  0  0  0  0  0  0  0  0
   58.9872   79.7315   31.6575 H   0  0  0  0  0  0  0  0  0  0  0  0
   56.9811   78.5440   30.8126 H   0  0  0  0  0  0  0  0  0  0  0  0
   55.9556   77.2959   29.8852 H   0  0  0  0  0  0  0  0  0  0  0  0
   54.4647   78.3655   29.7506 H   0  0  0  0  0  0  0  0  0  0  0  0
   55.0423   76.3432   27.6130 H   0  0  0  0  0  0  0  0  0  0  0  0
   54.2956   75.8625   29.2450 H   0  0  0  0  0  0  0  0  0  0  0  0
  1  2  1  0
  2  3  1  0
  3  4  1  0
  4  5  1  0
  5  6  1  0
  6  7  1  0
  7  8  1  0
  8  9  2  0
  9 10  1  0
 10 11  1  0
 11 12  1  0
 12 13  2  0
 12 14  1  0
 14 15  1  0
 15 16  2  0
 16 17  1  0
 17 18  1  0
 10 19  2  0
 19 20  1  0
  6 21  1  0
 21 22  1  0
 22  2  1  0
 20  7  2  0
 18 14  2  0
  1 23  1  0
  1 24  1  0
  1 25  1  0
  3 26  1  0
  3 27  1  0
  4 28  1  0
  4 29  1  0
  5 30  1  0
  5 31  1  0
  8 32  1  0
  9 33  1  0
 11 34  1  0
 15 35  1  0
 16 36  1  0
 18 37  1  0
 19 38  1  0
 20 39  1  0
 21 40  1  0
 21 41  1  0
 22 42  1  0
 22 43  1  0
M  END
>  <meeko>  (1) 
{"is_sidechain": false}

>  <smiles>  (1) 
CN1CCCN(c2ccc(NC(=O)c3ccsc3)cc2)CC1

>  <vina_score>  (1) 
-5.235

>  <job_id>  (1) 
2af320b0cf00d5e6

$$$$
