
     RDKit          3D

 48 51  0  0  0  0  0  0  0  0999 V2000
   53.6850   84.7660   25.7700 N   0  0  0  0  0  0  0  0  0  0  0  0
   55.0850   84.7360   26.1760 C   0  0  0  0  0  0  0  0  0  0  0  0
   55.3970   83.4890   26.9970 C   0  0  0  0  0  0  0  0  0  0  0  0
   55.9360   82.3770   26.1000 C   0  0  0  0  0  0  0  0  0  0  0  0
   54.9000   81.4330   25.7210 N   0  0  0  0  0  0  0  0  0  0  0  0
   54.0220   81.7900   24.7610 N   0  0  0  0  0  0  0  0  0  0  0  0
   53.1660   80.7550   24.6570 C   0  0  0  0  0  0  0  0  0  0  0  0
   52.0580   80.7780   23.6870 C   0  0  0  0  0  0  0  0  0  0  0  0
   52.4180   80.9840   22.3790 N   0  0  0  0  0  0  0  0  0  0  0  0
   50.8700   80.6640   23.9750 O   0  0  0  0  0  0  0  0  0  0  0  0
   53.5240   79.7330   25.5790 C   0  0  0  0  0  0  0  0  0  0  0  0
   54.6520   80.1940   26.2330 C   0  0  0  0  0  0  0  0  0  0  0  0
   55.3380   79.4450   27.2700 C   0  0  0  0  0  0  0  0  0  0  0  0
   56.5580   79.8570   27.6450 N   0  0  0  0  0  0  0  0  0  0  0  0
   57.1780   79.1220   28.5820 C   0  0  0  0  0  0  0  0  0  0  0  0
   58.4440   79.5790   28.9340 N   0  0  0  0  0  0  0  0  0  0  0  0
   58.9240   80.4990   29.8710 C   0  0  0  0  0  0  0  0  0  0  0  0
   59.7230   81.6000   29.5480 C   0  0  0  0  0  0  0  0  0  0  0  0
   60.1730   82.4860   30.5350 C   0  0  0  0  0  0  0  0  0  0  0  0
   59.8270   82.2850   31.8680 C   0  0  0  0  0  0  0  0  0  0  0  0
   59.0340   81.1970   32.2130 C   0  0  0  0  0  0  0  0  0  0  0  0
   58.5880   80.3150   31.2230 C   0  0  0  0  0  0  0  0  0  0  0  0
   56.6320   78.0280   29.1400 N   0  0  0  0  0  0  0  0  0  0  0  0
   55.4030   77.6550   28.7330 C   0  0  0  0  0  0  0  0  0  0  0  0
   54.6970   78.3230   27.7690 C   0  0  0  0  0  0  0  0  0  0  0  0
   53.2980   77.9530   27.3430 C   0  0  0  0  0  0  0  0  0  0  0  0
   52.9350   78.4010   25.9020 C   0  0  0  0  0  0  0  0  0  0  0  0
   53.5480   84.1790   24.9480 H   0  0  0  0  0  0  0  0  0  0  0  0
   53.1090   84.3490   26.5030 H   0  0  0  0  0  0  0  0  0  0  0  0
   55.7190   84.7412   25.2771 H   0  0  0  0  0  0  0  0  0  0  0  0
   55.2852   85.6207   26.7983 H   0  0  0  0  0  0  0  0  0  0  0  0
   56.1510   83.7367   27.7586 H   0  0  0  0  0  0  0  0  0  0  0  0
   54.4714   83.1398   27.4780 H   0  0  0  0  0  0  0  0  0  0  0  0
   56.3559   82.8280   25.1888 H   0  0  0  0  0  0  0  0  0  0  0  0
   56.7051   81.8288   26.6638 H   0  0  0  0  0  0  0  0  0  0  0  0
   53.2900   81.4530   22.1790 H   0  0  0  0  0  0  0  0  0  0  0  0
   51.6380   81.1870   21.7680 H   0  0  0  0  0  0  0  0  0  0  0  0
   59.1350   79.1170   28.3630 H   0  0  0  0  0  0  0  0  0  0  0  0
   60.0035   81.7737   28.4986 H   0  0  0  0  0  0  0  0  0  0  0  0
   60.8022   83.3439   30.2556 H   0  0  0  0  0  0  0  0  0  0  0  0
   60.1786   82.9822   32.6428 H   0  0  0  0  0  0  0  0  0  0  0  0
   58.7571   81.0295   33.2643 H   0  0  0  0  0  0  0  0  0  0  0  0
   57.9602   79.4583   31.5093 H   0  0  0  0  0  0  0  0  0  0  0  0
   54.9443   76.7701   29.1983 H   0  0  0  0  0  0  0  0  0  0  0  0
   53.1974   76.8591   27.4003 H   0  0  0  0  0  0  0  0  0  0  0  0
   52.6103   78.4791   28.0214 H   0  0  0  0  0  0  0  0  0  0  0  0
   53.3202   77.6574   25.1888 H   0  0  0  0  0  0  0  0  0  0  0  0
   51.8402   78.4813   25.8309 H   0  0  0  0  0  0  0  0  0  0  0  0
  1  2  1  0
  2  3  1  0
  3  4  1  0
  4  5  1  0
  5  6  1  0
  6  7  2  0
  7  8  1  0
  8  9  1  0
  8 10  2  0
  7 11  1  0
 11 12  2  0
 12 13  1  0
 13 14  2  0
 14 15  1  0
 15 16  1  0
 16 17  1  0
 17 18  2  0
 18 19  1  0
 19 20  2  0
 20 21  1  0
 21 22  2  0
 15 23  2  0
 23 24  1  0
 24 25  2  0
 25 26  1  0
 26 27  1  0
 12  5  1  0
 25 13  1  0
 27 11  1  0
 22 17  1  0
  1 28  1  0
  1 29  1  0
  2 30  1  0
  2 31  1  0
  3 32  1  0
  3 33  1  0
  4 34  1  0
  4 35  1  0
  9 36  1  0
  9 37  1  0
 16 38  1  0
 18 39  1  0
 19 40  1  0
 20 41  1  0
 21 42  1  0
 22 43  1  0
 24 44  1  0
 26 45  1  0
 26 46  1  0
 27 47  1  0
 27 48  1  0
M  END
>  <meeko>  (1) 
{"is_sidechain": false}

>  <smiles>  (1) 
NCCCn1nc(C(N)=O)c2c1-c1nc(Nc3ccccc3)ncc1CC2

>  <vina_score>  (1) 
-8.556

>  <job_id>  (1) 
2b1805e59e1d51d6

$$$$
