
     RDKit          3D

 65 68  0  0  0  0  0  0  0  0999 V2000
   60.4430   86.5760   31.4620 C   0  0  0  0  0  0  0  0  0  0  0  0
   61.8730   86.3020   31.0200 C   0  0  0  0  0  0  0  0  0  0  0  0
   62.3980   85.0090   31.5910 C   0  0  0  0  0  0  0  0  0  0  0  0
   62.4760   83.8610   30.7940 C   0  0  0  0  0  0  0  0  0  0  0  0
   62.9500   82.6610   31.3300 C   0  0  0  0  0  0  0  0  0  0  0  0
   63.3700   82.5890   32.6610 C   0  0  0  0  0  0  0  0  0  0  0  0
   63.8110   81.3570   33.1600 N   0  0  0  0  0  0  0  0  0  0  0  0
   63.0600   80.5630   33.8610 C   0  0  0  0  0  0  0  0  0  0  0  0
   61.7200   80.8090   34.3530 C   0  0  0  0  0  0  0  0  0  0  0  0
   61.3260   81.0350   35.6600 C   0  0  0  0  0  0  0  0  0  0  0  0
   61.9820   81.1070   36.8100 O   0  0  0  0  0  0  0  0  0  0  0  0
   59.9660   81.1800   35.6740 N   0  0  0  0  0  0  0  0  0  0  0  0
   59.4460   81.0190   34.4140 C   0  0  0  0  0  0  0  0  0  0  0  0
   58.1210   81.0710   33.9730 C   0  0  0  0  0  0  0  0  0  0  0  0
   57.8850   80.8610   32.6100 C   0  0  0  0  0  0  0  0  0  0  0  0
   58.9350   80.6020   31.7230 C   0  0  0  0  0  0  0  0  0  0  0  0
   58.6180   80.3940   30.2720 C   0  0  0  0  0  0  0  0  0  0  0  0
   59.2620   81.3480   29.2890 C   0  0  0  0  0  0  0  0  0  0  0  0
   57.8070   79.4410   29.9720 N   0  0  0  0  0  0  0  0  0  0  0  0
   57.3770   79.0580   28.6180 C   0  0  0  0  0  0  0  0  0  0  0  0
   58.2720   77.9800   28.0200 C   0  0  0  0  0  0  0  0  0  0  0  0
   55.8720   78.7360   28.5730 C   0  0  0  0  0  0  0  0  0  0  0  0
   55.3160   77.9520   29.3440 O   0  0  0  0  0  0  0  0  0  0  0  0
   55.0200   79.4020   27.5430 C   0  0  0  0  0  0  0  0  0  0  0  0
   53.6840   79.0440   27.3270 C   0  0  0  0  0  0  0  0  0  0  0  0
   52.9340   79.6930   26.3400 C   0  0  0  0  0  0  0  0  0  0  0  0
   53.5280   80.6920   25.5640 C   0  0  0  0  0  0  0  0  0  0  0  0
   52.5660   81.5200   24.3230 S   0  0  0  0  0  0  0  0  0  0  0  0
   53.3100   80.9890   22.9100 N   0  0  0  0  0  0  0  0  0  0  0  0
   52.8400   82.9360   24.4040 O   0  0  0  0  0  0  0  0  0  0  0  0
   51.2270   80.9820   24.3540 O   0  0  0  0  0  0  0  0  0  0  0  0
   54.8590   81.0600   25.7700 C   0  0  0  0  0  0  0  0  0  0  0  0
   55.6040   80.4060   26.7540 C   0  0  0  0  0  0  0  0  0  0  0  0
   60.2600   80.5630   32.1880 C   0  0  0  0  0  0  0  0  0  0  0  0
   60.5220   80.7710   33.5610 C   0  0  0  0  0  0  0  0  0  0  0  0
   63.2500   83.7250   33.4670 C   0  0  0  0  0  0  0  0  0  0  0  0
   62.7780   84.9280   32.9350 C   0  0  0  0  0  0  0  0  0  0  0  0
   60.3943   86.5853   32.5609 H   0  0  0  0  0  0  0  0  0  0  0  0
   60.1195   87.5525   31.0723 H   0  0  0  0  0  0  0  0  0  0  0  0
   59.7815   85.7883   31.0723 H   0  0  0  0  0  0  0  0  0  0  0  0
   61.9012   86.2436   29.9219 H   0  0  0  0  0  0  0  0  0  0  0  0
   62.5077   87.1212   31.3890 H   0  0  0  0  0  0  0  0  0  0  0  0
   62.1626   83.9038   29.7405 H   0  0  0  0  0  0  0  0  0  0  0  0
   62.9931   81.7624   30.6970 H   0  0  0  0  0  0  0  0  0  0  0  0
   63.4944   79.5840   34.1119 H   0  0  0  0  0  0  0  0  0  0  0  0
   62.9340   81.1420   36.6030 H   0  0  0  0  0  0  0  0  0  0  0  0
   59.4300   81.3620   36.5100 H   0  0  0  0  0  0  0  0  0  0  0  0
   57.2946   81.2696   34.6713 H   0  0  0  0  0  0  0  0  0  0  0  0
   56.8540   80.9003   32.2287 H   0  0  0  0  0  0  0  0  0  0  0  0
   59.7948   82.1373   29.8395 H   0  0  0  0  0  0  0  0  0  0  0  0
   59.9740   80.7975   28.6566 H   0  0  0  0  0  0  0  0  0  0  0  0
   58.4852   81.8025   28.6566 H   0  0  0  0  0  0  0  0  0  0  0  0
   57.5065   79.9280   27.9574 H   0  0  0  0  0  0  0  0  0  0  0  0
   58.7475   77.4073   28.8299 H   0  0  0  0  0  0  0  0  0  0  0  0
   57.6664   77.3034   27.3991 H   0  0  0  0  0  0  0  0  0  0  0  0
   59.0484   78.4509   27.3991 H   0  0  0  0  0  0  0  0  0  0  0  0
   53.2230   78.2511   27.9343 H   0  0  0  0  0  0  0  0  0  0  0  0
   51.8817   79.4181   26.1756 H   0  0  0  0  0  0  0  0  0  0  0  0
   53.8630   81.7070   22.4440 H   0  0  0  0  0  0  0  0  0  0  0  0
   52.6000   80.5920   22.2910 H   0  0  0  0  0  0  0  0  0  0  0  0
   55.3159   81.8562   25.1640 H   0  0  0  0  0  0  0  0  0  0  0  0
   56.6575   80.6799   26.9122 H   0  0  0  0  0  0  0  0  0  0  0  0
   61.0873   80.3720   31.4887 H   0  0  0  0  0  0  0  0  0  0  0  0
   63.5296   83.6714   34.5295 H   0  0  0  0  0  0  0  0  0  0  0  0
   62.7047   85.8177   33.5777 H   0  0  0  0  0  0  0  0  0  0  0  0
  1  2  1  0
  2  3  1  0
  3  4  1  0
  4  5  2  0
  5  6  1  0
  6  7  1  0
  7  8  2  3
  8  9  1  0
  9 10  2  0
 10 11  1  0
 10 12  1  0
 12 13  1  0
 13 14  2  0
 14 15  1  0
 15 16  2  0
 16 17  1  0
 17 18  1  0
 17 19  2  3
 19 20  1  0
 20 21  1  0
 20 22  1  0
 22 23  2  0
 22 24  1  0
 24 25  1  0
 25 26  2  0
 26 27  1  0
 27 28  1  0
 28 29  1  0
 28 30  2  0
 28 31  2  0
 27 32  2  0
 32 33  1  0
 16 34  1  0
 34 35  2  0
  6 36  2  0
 36 37  1  0
 37  3  2  0
 35  9  1  0
 35 13  1  0
 33 24  2  0
  1 38  1  0
  1 39  1  0
  1 40  1  0
  2 41  1  0
  2 42  1  0
  4 43  1  0
  5 44  1  0
  8 45  1  0
 11 46  1  0
 12 47  1  0
 14 48  1  0
 15 49  1  0
 18 50  1  0
 18 51  1  0
 18 52  1  0
 20 53  1  0
 21 54  1  0
 21 55  1  0
 21 56  1  0
 25 57  1  0
 26 58  1  0
 29 59  1  0
 29 60  1  0
 32 61  1  0
 33 62  1  0
 34 63  1  0
 36 64  1  0
 37 65  1  0
M  END
>  <meeko>  (1) 
{"is_sidechain": false}

>  <smiles>  (1) 
CCc1ccc(N=Cc2c(O)[nH]c3ccc(C(C)=NC(C)C(=O)c4ccc(S(N)(=O)=O)cc4)cc23)cc1

>  <vina_score>  (1) 
-8.481

>  <job_id>  (1) 
2b47cd6d21d7ab59

$$$$
