
     RDKit          3D

 44 46  0  0  0  0  0  0  0  0999 V2000
   62.4100   82.7740   36.6020 C   0  0  0  0  0  0  0  0  0  0  0  0
   62.5950   83.2260   35.2240 N   0  0  0  0  0  0  0  0  0  0  0  0
   63.4350   82.3030   34.4480 C   0  0  0  0  0  0  0  0  0  0  0  0
   62.6490   81.4410   33.4680 C   0  0  0  0  0  0  0  0  0  0  0  0
   61.8850   82.3120   32.4610 C   0  0  0  0  0  0  0  0  0  0  0  0
   60.7590   81.5670   31.9030 N   0  0  0  0  0  0  0  0  0  0  0  0
   60.3630   81.7270   30.5910 C   0  0  0  0  0  0  0  0  0  0  0  0
   60.8660   82.5420   29.8260 O   0  0  0  0  0  0  0  0  0  0  0  0
   59.2450   80.8620   30.1250 C   0  0  0  0  0  0  0  0  0  0  0  0
   58.9400   80.7010   28.7700 C   0  0  0  0  0  0  0  0  0  0  0  0
   57.8730   79.8790   28.3850 C   0  0  0  0  0  0  0  0  0  0  0  0
   57.0880   79.2090   29.3390 C   0  0  0  0  0  0  0  0  0  0  0  0
   55.9670   78.3480   28.9290 C   0  0  0  0  0  0  0  0  0  0  0  0
   55.7580   77.0950   29.5320 C   0  0  0  0  0  0  0  0  0  0  0  0
   54.6940   76.2750   29.1450 C   0  0  0  0  0  0  0  0  0  0  0  0
   53.8190   76.6950   28.1460 C   0  0  0  0  0  0  0  0  0  0  0  0
   54.0130   77.9320   27.5390 C   0  0  0  0  0  0  0  0  0  0  0  0
   52.9350   78.4550   26.3020 Cl  0  0  0  0  0  0  0  0  0  0  0  0
   55.0740   78.7540   27.9220 C   0  0  0  0  0  0  0  0  0  0  0  0
   57.3990   79.3950   30.6960 C   0  0  0  0  0  0  0  0  0  0  0  0
   58.4620   80.2150   31.0870 C   0  0  0  0  0  0  0  0  0  0  0  0
   61.4220   83.6380   33.0800 C   0  0  0  0  0  0  0  0  0  0  0  0
   61.3020   83.5280   34.5980 C   0  0  0  0  0  0  0  0  0  0  0  0
   62.7339   83.5653   37.2940 H   0  0  0  0  0  0  0  0  0  0  0  0
   61.3472   82.5485   36.7744 H   0  0  0  0  0  0  0  0  0  0  0  0
   63.0097   81.8681   36.7744 H   0  0  0  0  0  0  0  0  0  0  0  0
   64.1687   82.8942   33.8803 H   0  0  0  0  0  0  0  0  0  0  0  0
   63.9134   81.6208   35.1661 H   0  0  0  0  0  0  0  0  0  0  0  0
   63.3468   80.7884   32.9228 H   0  0  0  0  0  0  0  0  0  0  0  0
   61.9224   80.8398   34.0341 H   0  0  0  0  0  0  0  0  0  0  0  0
   62.5770   82.5690   31.6454 H   0  0  0  0  0  0  0  0  0  0  0  0
   60.2780   80.9050   32.4960 H   0  0  0  0  0  0  0  0  0  0  0  0
   59.5379   81.2198   28.0063 H   0  0  0  0  0  0  0  0  0  0  0  0
   57.6453   79.7556   27.3159 H   0  0  0  0  0  0  0  0  0  0  0  0
   56.4436   76.7542   30.3218 H   0  0  0  0  0  0  0  0  0  0  0  0
   54.5478   75.2983   29.6294 H   0  0  0  0  0  0  0  0  0  0  0  0
   52.9802   76.0531   27.8389 H   0  0  0  0  0  0  0  0  0  0  0  0
   55.2128   79.7287   27.4313 H   0  0  0  0  0  0  0  0  0  0  0  0
   56.7965   78.8873   31.4637 H   0  0  0  0  0  0  0  0  0  0  0  0
   58.6835   80.3519   32.1557 H   0  0  0  0  0  0  0  0  0  0  0  0
   62.1523   84.4229   32.8340 H   0  0  0  0  0  0  0  0  0  0  0  0
   60.4319   83.8863   32.6700 H   0  0  0  0  0  0  0  0  0  0  0  0
   60.9274   84.4825   34.9962 H   0  0  0  0  0  0  0  0  0  0  0  0
   60.6088   82.7057   34.8287 H   0  0  0  0  0  0  0  0  0  0  0  0
  1  2  1  0
  2  3  1  0
  3  4  1  0
  4  5  1  0
  5  6  1  0
  6  7  1  0
  7  8  2  0
  7  9  1  0
  9 10  1  0
 10 11  2  0
 11 12  1  0
 12 13  1  0
 13 14  2  0
 14 15  1  0
 15 16  2  0
 16 17  1  0
 17 18  1  0
 17 19  2  0
 12 20  2  0
 20 21  1  0
  5 22  1  0
 22 23  1  0
 23  2  1  0
 21  9  2  0
 19 13  1  0
  1 24  1  0
  1 25  1  0
  1 26  1  0
  3 27  1  0
  3 28  1  0
  4 29  1  0
  4 30  1  0
  5 31  1  0
  6 32  1  0
 10 33  1  0
 11 34  1  0
 14 35  1  0
 15 36  1  0
 16 37  1  0
 19 38  1  0
 20 39  1  0
 21 40  1  0
 22 41  1  0
 22 42  1  0
 23 43  1  0
 23 44  1  0
M  END
>  <meeko>  (1) 
{"is_sidechain": false}

>  <smiles>  (1) 
CN1CCC(NC(=O)c2ccc(-c3cccc(Cl)c3)cc2)CC1

>  <vina_score>  (1) 
-7.698

>  <job_id>  (1) 
2bdc58d8bb0a6ff9

$$$$
