
     RDKit          3D

 38 39  0  0  0  0  0  0  0  0999 V2000
   52.5560   75.5590   26.8990 C   0  0  0  0  0  0  0  0  0  0  0  0
   52.5030   76.5660   28.0380 C   0  0  0  0  0  0  0  0  0  0  0  0
   53.6860   77.5090   28.0150 C   0  0  0  0  0  0  0  0  0  0  0  0
   53.6170   78.6500   27.1890 C   0  0  0  0  0  0  0  0  0  0  0  0
   54.6630   79.5810   27.1160 C   0  0  0  0  0  0  0  0  0  0  0  0
   54.5400   80.6720   26.2370 N   0  0  0  0  0  0  0  0  0  0  0  0
   53.7070   80.8960   25.1290 C   0  0  0  0  0  0  0  0  0  0  0  0
   53.2990   82.2080   24.8380 C   0  0  0  0  0  0  0  0  0  0  0  0
   52.5000   82.4890   23.7260 C   0  0  0  0  0  0  0  0  0  0  0  0
   52.0990   81.4470   22.8920 C   0  0  0  0  0  0  0  0  0  0  0  0
   51.0870   81.7800   21.4750 S   0  0  0  0  0  0  0  0  0  0  0  0
   49.5600   81.3560   22.0470 N   0  0  0  0  0  0  0  0  0  0  0  0
   51.0390   83.2090   21.2700 O   0  0  0  0  0  0  0  0  0  0  0  0
   51.4450   80.8540   20.4290 O   0  0  0  0  0  0  0  0  0  0  0  0
   52.5050   80.1370   23.1480 C   0  0  0  0  0  0  0  0  0  0  0  0
   53.3040   79.8690   24.2630 C   0  0  0  0  0  0  0  0  0  0  0  0
   55.8020   79.3430   27.8850 C   0  0  0  0  0  0  0  0  0  0  0  0
   55.8880   78.2230   28.7160 C   0  0  0  0  0  0  0  0  0  0  0  0
   54.8350   77.3010   28.7990 C   0  0  0  0  0  0  0  0  0  0  0  0
   54.9820   76.1070   29.7020 C   0  0  0  0  0  0  0  0  0  0  0  0
   52.6096   74.5409   27.3119 H   0  0  0  0  0  0  0  0  0  0  0  0
   51.6515   75.6568   26.2807 H   0  0  0  0  0  0  0  0  0  0  0  0
   53.4453   75.7512   26.2807 H   0  0  0  0  0  0  0  0  0  0  0  0
   51.5778   77.1544   27.9493 H   0  0  0  0  0  0  0  0  0  0  0  0
   52.5303   76.0090   28.9861 H   0  0  0  0  0  0  0  0  0  0  0  0
   52.7140   78.8148   26.5828 H   0  0  0  0  0  0  0  0  0  0  0  0
   55.2220   81.4030   26.4040 H   0  0  0  0  0  0  0  0  0  0  0  0
   53.6142   83.0300   25.4976 H   0  0  0  0  0  0  0  0  0  0  0  0
   52.1908   83.5226   23.5113 H   0  0  0  0  0  0  0  0  0  0  0  0
   48.8140   81.9430   21.6750 H   0  0  0  0  0  0  0  0  0  0  0  0
   49.3990   80.3670   21.8540 H   0  0  0  0  0  0  0  0  0  0  0  0
   52.1985   79.3209   22.4771 H   0  0  0  0  0  0  0  0  0  0  0  0
   53.6220   78.8355   24.4647 H   0  0  0  0  0  0  0  0  0  0  0  0
   56.6453   80.0476   27.8366 H   0  0  0  0  0  0  0  0  0  0  0  0
   56.7966   78.0620   29.3148 H   0  0  0  0  0  0  0  0  0  0  0  0
   54.9418   76.4339   30.7515 H   0  0  0  0  0  0  0  0  0  0  0  0
   54.1645   75.3972   29.5074 H   0  0  0  0  0  0  0  0  0  0  0  0
   55.9473   75.6167   29.5074 H   0  0  0  0  0  0  0  0  0  0  0  0
  1  2  1  0
  2  3  1  0
  3  4  1  0
  4  5  2  0
  5  6  1  0
  6  7  1  0
  7  8  1  0
  8  9  2  0
  9 10  1  0
 10 11  1  0
 11 12  1  0
 11 13  2  0
 11 14  2  0
 10 15  2  0
 15 16  1  0
  5 17  1  0
 17 18  2  0
 18 19  1  0
 19 20  1  0
 19  3  2  0
 16  7  2  0
  1 21  1  0
  1 22  1  0
  1 23  1  0
  2 24  1  0
  2 25  1  0
  4 26  1  0
  6 27  1  0
  8 28  1  0
  9 29  1  0
 12 30  1  0
 12 31  1  0
 15 32  1  0
 16 33  1  0
 17 34  1  0
 18 35  1  0
 20 36  1  0
 20 37  1  0
 20 38  1  0
M  END
>  <meeko>  (1) 
{"is_sidechain": false}

>  <smiles>  (1) 
CCc1cc(Nc2ccc(S(N)(=O)=O)cc2)ccc1C

>  <vina_score>  (1) 
-8.824

>  <job_id>  (1) 
2bf6cf2b4aadf0aa

$$$$
