
     RDKit          3D

 46 48  0  0  0  0  0  0  0  0999 V2000
   65.0150   86.0520   28.8850 C   0  0  0  0  0  0  0  0  0  0  0  0
   65.3240   84.7350   29.5530 C   0  0  0  0  0  0  0  0  0  0  0  0
   66.4250   84.2070   29.4010 O   0  0  0  0  0  0  0  0  0  0  0  0
   64.3220   84.1740   30.3340 N   0  0  0  0  0  0  0  0  0  0  0  0
   63.0400   84.8220   30.6100 C   0  0  0  0  0  0  0  0  0  0  0  0
   62.4090   84.3110   31.9020 C   0  0  0  0  0  0  0  0  0  0  0  0
   62.2000   82.7840   31.8940 C   0  0  0  0  0  0  0  0  0  0  0  0
   60.7710   82.4260   31.4350 C   0  0  0  0  0  0  0  0  0  0  0  0
   60.8200   81.6550   30.1940 N   0  0  0  0  0  0  0  0  0  0  0  0
   59.6670   80.9070   29.9490 C   0  0  0  0  0  0  0  0  0  0  0  0
   58.9520   80.2890   30.9660 C   0  0  0  0  0  0  0  0  0  0  0  0
   57.8160   79.5450   30.6460 C   0  0  0  0  0  0  0  0  0  0  0  0
   57.4090   79.4180   29.3150 C   0  0  0  0  0  0  0  0  0  0  0  0
   56.2230   78.6410   28.9310 C   0  0  0  0  0  0  0  0  0  0  0  0
   55.3380   79.1070   27.9430 C   0  0  0  0  0  0  0  0  0  0  0  0
   54.2110   78.3680   27.5770 C   0  0  0  0  0  0  0  0  0  0  0  0
   53.9460   77.1480   28.1940 C   0  0  0  0  0  0  0  0  0  0  0  0
   54.8070   76.6680   29.1760 C   0  0  0  0  0  0  0  0  0  0  0  0
   55.9350   77.4080   29.5410 C   0  0  0  0  0  0  0  0  0  0  0  0
   58.2020   80.0720   28.3730 C   0  0  0  0  0  0  0  0  0  0  0  0
   59.3110   80.8030   28.6590 N   0  0  0  0  0  0  0  0  0  0  0  0
   63.2620   82.0660   31.0380 C   0  0  0  0  0  0  0  0  0  0  0  0
   64.5560   82.8640   30.9380 C   0  0  0  0  0  0  0  0  0  0  0  0
   64.8350   86.8191   29.6526 H   0  0  0  0  0  0  0  0  0  0  0  0
   65.8667   86.3537   28.2577 H   0  0  0  0  0  0  0  0  0  0  0  0
   64.1179   85.9434   28.2577 H   0  0  0  0  0  0  0  0  0  0  0  0
   63.2017   85.9065   30.6982 H   0  0  0  0  0  0  0  0  0  0  0  0
   62.3553   84.5885   29.7813 H   0  0  0  0  0  0  0  0  0  0  0  0
   63.0675   84.5724   32.7435 H   0  0  0  0  0  0  0  0  0  0  0  0
   61.4202   84.7828   32.0000 H   0  0  0  0  0  0  0  0  0  0  0  0
   62.3238   82.4269   32.9271 H   0  0  0  0  0  0  0  0  0  0  0  0
   60.2773   81.8283   32.2154 H   0  0  0  0  0  0  0  0  0  0  0  0
   60.2061   83.3536   31.2603 H   0  0  0  0  0  0  0  0  0  0  0  0
   60.8660   82.2660   29.3760 H   0  0  0  0  0  0  0  0  0  0  0  0
   59.2775   80.3849   32.0124 H   0  0  0  0  0  0  0  0  0  0  0  0
   57.2383   79.0564   31.4445 H   0  0  0  0  0  0  0  0  0  0  0  0
   55.5366   80.0700   27.4499 H   0  0  0  0  0  0  0  0  0  0  0  0
   53.5319   78.7500   26.8005 H   0  0  0  0  0  0  0  0  0  0  0  0
   53.0585   76.5655   27.9059 H   0  0  0  0  0  0  0  0  0  0  0  0
   54.5996   75.7050   29.6656 H   0  0  0  0  0  0  0  0  0  0  0  0
   56.6087   77.0189   30.3187 H   0  0  0  0  0  0  0  0  0  0  0  0
   57.9070   79.9898   27.3165 H   0  0  0  0  0  0  0  0  0  0  0  0
   63.4825   81.0891   31.4930 H   0  0  0  0  0  0  0  0  0  0  0  0
   62.8562   81.9519   30.0220 H   0  0  0  0  0  0  0  0  0  0  0  0
   64.9711   83.0029   31.9471 H   0  0  0  0  0  0  0  0  0  0  0  0
   65.2609   82.3077   30.3026 H   0  0  0  0  0  0  0  0  0  0  0  0
  1  2  1  0
  2  3  2  0
  2  4  1  0
  4  5  1  0
  5  6  1  0
  6  7  1  0
  7  8  1  0
  8  9  1  0
  9 10  1  0
 10 11  2  0
 11 12  1  0
 12 13  2  0
 13 14  1  0
 14 15  2  0
 15 16  1  0
 16 17  2  0
 17 18  1  0
 18 19  2  0
 13 20  1  0
 20 21  2  0
  7 22  1  0
 22 23  1  0
 23  4  1  0
 21 10  1  0
 19 14  1  0
  1 24  1  0
  1 25  1  0
  1 26  1  0
  5 27  1  0
  5 28  1  0
  6 29  1  0
  6 30  1  0
  7 31  1  0
  8 32  1  0
  8 33  1  0
  9 34  1  0
 11 35  1  0
 12 36  1  0
 15 37  1  0
 16 38  1  0
 17 39  1  0
 18 40  1  0
 19 41  1  0
 20 42  1  0
 22 43  1  0
 22 44  1  0
 23 45  1  0
 23 46  1  0
M  END
>  <meeko>  (1) 
{"is_sidechain": false}

>  <smiles>  (1) 
CC(=O)N1CCC(CNc2ccc(-c3ccccc3)cn2)CC1

>  <vina_score>  (1) 
-8.140

>  <job_id>  (1) 
2c130a51baa2e38b

$$$$
