
     RDKit          3D

 44 47  0  0  0  0  0  0  0  0999 V2000
   55.1840   76.8150   29.9220 C   0  0  0  0  0  0  0  0  0  0  0  0
   55.1120   77.8370   28.8490 C   0  0  0  0  0  0  0  0  0  0  0  0
   56.0250   78.7600   28.6230 N   0  0  0  0  0  0  0  0  0  0  0  0
   55.5700   79.4940   27.5520 C   0  0  0  0  0  0  0  0  0  0  0  0
   56.1250   80.5950   26.8900 C   0  0  0  0  0  0  0  0  0  0  0  0
   57.3030   81.1130   27.2730 F   0  0  0  0  0  0  0  0  0  0  0  0
   55.4490   81.1750   25.8080 C   0  0  0  0  0  0  0  0  0  0  0  0
   54.2190   80.6820   25.3460 C   0  0  0  0  0  0  0  0  0  0  0  0
   53.5380   81.2670   24.2740 N   0  0  0  0  0  0  0  0  0  0  0  0
   53.0210   82.6340   24.4490 C   0  0  0  0  0  0  0  0  0  0  0  0
   51.7480   82.8560   23.6460 C   0  0  0  0  0  0  0  0  0  0  0  0
   51.9630   82.5300   22.1740 C   0  0  0  0  0  0  0  0  0  0  0  0
   50.6850   82.4470   21.5450 O   0  0  0  0  0  0  0  0  0  0  0  0
   52.7450   81.2360   21.9550 C   0  0  0  0  0  0  0  0  0  0  0  0
   52.9130   80.4310   23.2420 C   0  0  0  0  0  0  0  0  0  0  0  0
   53.6600   79.5740   26.0200 C   0  0  0  0  0  0  0  0  0  0  0  0
   54.3480   79.0030   27.1070 C   0  0  0  0  0  0  0  0  0  0  0  0
   54.0720   77.9500   27.9510 N   0  0  0  0  0  0  0  0  0  0  0  0
   52.8960   77.0960   27.8720 C   0  0  0  0  0  0  0  0  0  0  0  0
   53.0050   76.0910   26.7630 C   0  0  0  0  0  0  0  0  0  0  0  0
   52.8200   74.6240   27.0620 C   0  0  0  0  0  0  0  0  0  0  0  0
   51.7910   75.3570   26.2500 C   0  0  0  0  0  0  0  0  0  0  0  0
   55.1491   77.3106   30.9034 H   0  0  0  0  0  0  0  0  0  0  0  0
   54.3322   76.1252   29.8291 H   0  0  0  0  0  0  0  0  0  0  0  0
   56.1241   76.2514   29.8291 H   0  0  0  0  0  0  0  0  0  0  0  0
   55.8969   82.0446   25.3047 H   0  0  0  0  0  0  0  0  0  0  0  0
   52.8050   82.8007   25.5146 H   0  0  0  0  0  0  0  0  0  0  0  0
   53.7837   83.3401   24.0888 H   0  0  0  0  0  0  0  0  0  0  0  0
   50.9541   82.2076   24.0451 H   0  0  0  0  0  0  0  0  0  0  0  0
   51.4623   83.9149   23.7307 H   0  0  0  0  0  0  0  0  0  0  0  0
   52.5719   83.3316   21.7305 H   0  0  0  0  0  0  0  0  0  0  0  0
   50.0140   82.3730   22.2470 H   0  0  0  0  0  0  0  0  0  0  0  0
   52.2075   80.6187   21.2201 H   0  0  0  0  0  0  0  0  0  0  0  0
   53.7488   81.5079   21.5966 H   0  0  0  0  0  0  0  0  0  0  0  0
   51.9266   80.0940   23.5932 H   0  0  0  0  0  0  0  0  0  0  0  0
   53.5539   79.5593   23.0438 H   0  0  0  0  0  0  0  0  0  0  0  0
   52.6932   79.1600   25.6976 H   0  0  0  0  0  0  0  0  0  0  0  0
   52.7808   76.5610   28.8262 H   0  0  0  0  0  0  0  0  0  0  0  0
   52.0247   77.7354   27.6669 H   0  0  0  0  0  0  0  0  0  0  0  0
   53.7868   76.7081   26.2961 H   0  0  0  0  0  0  0  0  0  0  0  0
   53.4707   73.8788   26.5812 H   0  0  0  0  0  0  0  0  0  0  0  0
   52.7974   74.0145   27.9774 H   0  0  0  0  0  0  0  0  0  0  0  0
   51.6886   75.1483   25.1749 H   0  0  0  0  0  0  0  0  0  0  0  0
   50.7037   75.5059   26.3252 H   0  0  0  0  0  0  0  0  0  0  0  0
  1  2  1  0
  2  3  2  0
  3  4  1  0
  4  5  2  0
  5  6  1  0
  5  7  1  0
  7  8  2  0
  8  9  1  0
  9 10  1  0
 10 11  1  0
 11 12  1  0
 12 13  1  0
 12 14  1  0
 14 15  1  0
  8 16  1  0
 16 17  2  0
 17 18  1  0
 18 19  1  0
 19 20  1  0
 20 21  1  0
 21 22  1  0
 18  2  1  0
 22 20  1  0
 17  4  1  0
 15  9  1  0
  1 23  1  0
  1 24  1  0
  1 25  1  0
  7 26  1  0
 10 27  1  0
 10 28  1  0
 11 29  1  0
 11 30  1  0
 12 31  1  0
 13 32  1  0
 14 33  1  0
 14 34  1  0
 15 35  1  0
 15 36  1  0
 16 37  1  0
 19 38  1  0
 19 39  1  0
 20 40  1  0
 21 41  1  0
 21 42  1  0
 22 43  1  0
 22 44  1  0
M  END
>  <meeko>  (1) 
{"is_sidechain": false}

>  <smiles>  (1) 
Cc1nc2c(F)cc(N3CCC(O)CC3)cc2n1CC1CC1

>  <vina_score>  (1) 
-7.720

>  <job_id>  (1) 
2c141cd161b07006

$$$$
