
     RDKit          3D

 36 38  0  0  0  0  0  0  0  0999 V2000
   59.6850   83.0300   34.0200 N   0  0  0  0  0  0  0  0  0  0  0  0
   60.3570   83.3740   32.5210 S   0  0  0  0  0  0  0  0  0  0  0  0
   61.7750   83.1340   32.6560 O   0  0  0  0  0  0  0  0  0  0  0  0
   59.8220   84.6590   32.1340 O   0  0  0  0  0  0  0  0  0  0  0  0
   59.6470   82.1160   31.5030 C   0  0  0  0  0  0  0  0  0  0  0  0
   60.0440   81.9940   30.1710 C   0  0  0  0  0  0  0  0  0  0  0  0
   59.4960   80.9800   29.3810 C   0  0  0  0  0  0  0  0  0  0  0  0
   58.5550   80.0780   29.9030 C   0  0  0  0  0  0  0  0  0  0  0  0
   58.0640   79.0540   29.0750 N   0  0  0  0  0  0  0  0  0  0  0  0
   56.7590   78.6550   28.7430 C   0  0  0  0  0  0  0  0  0  0  0  0
   56.1650   77.6090   29.4610 C   0  0  0  0  0  0  0  0  0  0  0  0
   54.8810   77.1450   29.1450 C   0  0  0  0  0  0  0  0  0  0  0  0
   54.1390   77.7110   28.0990 C   0  0  0  0  0  0  0  0  0  0  0  0
   52.7610   77.2040   27.7430 C   0  0  0  0  0  0  0  0  0  0  0  0
   52.4290   75.7390   27.9090 C   0  0  0  0  0  0  0  0  0  0  0  0
   52.5600   76.3180   26.5350 C   0  0  0  0  0  0  0  0  0  0  0  0
   54.7550   78.7440   27.3800 C   0  0  0  0  0  0  0  0  0  0  0  0
   54.1020   79.3160   26.3560 F   0  0  0  0  0  0  0  0  0  0  0  0
   56.0340   79.2110   27.6870 C   0  0  0  0  0  0  0  0  0  0  0  0
   58.1880   80.2100   31.2490 C   0  0  0  0  0  0  0  0  0  0  0  0
   58.7270   81.2210   32.0510 C   0  0  0  0  0  0  0  0  0  0  0  0
   60.2510   83.4500   34.7570 H   0  0  0  0  0  0  0  0  0  0  0  0
   59.5600   82.0230   34.1200 H   0  0  0  0  0  0  0  0  0  0  0  0
   60.7822   82.6902   29.7463 H   0  0  0  0  0  0  0  0  0  0  0  0
   59.8077   80.8866   28.3302 H   0  0  0  0  0  0  0  0  0  0  0  0
   58.7870   78.4660   28.6740 H   0  0  0  0  0  0  0  0  0  0  0  0
   56.7177   77.1424   30.2897 H   0  0  0  0  0  0  0  0  0  0  0  0
   54.4468   76.3203   29.7293 H   0  0  0  0  0  0  0  0  0  0  0  0
   52.3267   78.1512   28.0953 H   0  0  0  0  0  0  0  0  0  0  0  0
   53.1921   75.0424   28.2864 H   0  0  0  0  0  0  0  0  0  0  0  0
   51.6492   75.1758   28.4425 H   0  0  0  0  0  0  0  0  0  0  0  0
   53.4192   76.0463   25.9042 H   0  0  0  0  0  0  0  0  0  0  0  0
   51.9161   76.3552   25.6440 H   0  0  0  0  0  0  0  0  0  0  0  0
   56.4748   80.0243   27.0918 H   0  0  0  0  0  0  0  0  0  0  0  0
   57.4628   79.5056   31.6826 H   0  0  0  0  0  0  0  0  0  0  0  0
   58.4281   81.3101   33.1058 H   0  0  0  0  0  0  0  0  0  0  0  0
  1  2  1  0
  2  3  2  0
  2  4  2  0
  2  5  1  0
  5  6  1  0
  6  7  2  0
  7  8  1  0
  8  9  1  0
  9 10  1  0
 10 11  1  0
 11 12  2  0
 12 13  1  0
 13 14  1  0
 14 15  1  0
 15 16  1  0
 13 17  2  0
 17 18  1  0
 17 19  1  0
  8 20  2  0
 20 21  1  0
 21  5  2  0
 19 10  2  0
 16 14  1  0
  1 22  1  0
  1 23  1  0
  6 24  1  0
  7 25  1  0
  9 26  1  0
 11 27  1  0
 12 28  1  0
 14 29  1  0
 15 30  1  0
 15 31  1  0
 16 32  1  0
 16 33  1  0
 19 34  1  0
 20 35  1  0
 21 36  1  0
M  END
>  <meeko>  (1) 
{"is_sidechain": false}

>  <smiles>  (1) 
NS(=O)(=O)c1ccc(Nc2ccc(C3CC3)c(F)c2)cc1

>  <vina_score>  (1) 
-8.258

>  <job_id>  (1) 
2c7c4ae7a60aa63f

$$$$
