
     RDKit          3D

 48 50  0  0  0  0  0  0  0  0999 V2000
   58.2180   78.1680   28.0200 O   0  0  0  0  0  0  0  0  0  0  0  0
   57.6620   79.1930   28.4030 C   0  0  0  0  0  0  0  0  0  0  0  0
   58.4400   80.4990   28.6420 C   0  0  0  0  0  0  0  0  0  0  0  0
   59.3110   80.4050   29.8270 N   0  0  0  0  0  0  0  0  0  0  0  0
   58.5890   79.8900   31.0070 C   0  0  0  0  0  0  0  0  0  0  0  0
   58.1850   80.9880   32.0040 C   0  0  0  0  0  0  0  0  0  0  0  0
   59.2950   81.7510   32.4980 O   0  0  0  0  0  0  0  0  0  0  0  0
   60.4230   81.7460   31.6110 C   0  0  0  0  0  0  0  0  0  0  0  0
   60.0010   81.6730   30.1360 C   0  0  0  0  0  0  0  0  0  0  0  0
   56.2970   79.3420   28.6300 N   0  0  0  0  0  0  0  0  0  0  0  0
   55.3340   78.3190   28.4680 C   0  0  0  0  0  0  0  0  0  0  0  0
   55.5270   77.1850   29.2770 C   0  0  0  0  0  0  0  0  0  0  0  0
   54.6330   76.1150   29.2500 C   0  0  0  0  0  0  0  0  0  0  0  0
   53.5420   76.1570   28.3950 C   0  0  0  0  0  0  0  0  0  0  0  0
   53.3670   77.2520   27.5490 C   0  0  0  0  0  0  0  0  0  0  0  0
   54.2670   78.3430   27.5460 C   0  0  0  0  0  0  0  0  0  0  0  0
   54.0940   79.4110   26.4700 C   0  0  0  0  0  0  0  0  0  0  0  0
   53.3100   80.6360   26.9750 C   0  0  0  0  0  0  0  0  0  0  0  0
   53.1830   81.7010   25.8860 C   0  0  0  0  0  0  0  0  0  0  0  0
   52.5470   81.1340   24.6200 C   0  0  0  0  0  0  0  0  0  0  0  0
   53.2930   79.9040   24.1130 C   0  0  0  0  0  0  0  0  0  0  0  0
   53.4270   78.8370   25.2000 C   0  0  0  0  0  0  0  0  0  0  0  0
   59.0609   80.7109   27.7590 H   0  0  0  0  0  0  0  0  0  0  0  0
   57.7120   81.3054   28.8144 H   0  0  0  0  0  0  0  0  0  0  0  0
   57.6775   79.3796   30.6625 H   0  0  0  0  0  0  0  0  0  0  0  0
   59.2734   79.2091   31.5342 H   0  0  0  0  0  0  0  0  0  0  0  0
   57.4871   81.6742   31.5019 H   0  0  0  0  0  0  0  0  0  0  0  0
   57.7276   80.4860   32.8693 H   0  0  0  0  0  0  0  0  0  0  0  0
   61.0017   82.6681   31.7687 H   0  0  0  0  0  0  0  0  0  0  0  0
   61.0245   80.8526   31.8347 H   0  0  0  0  0  0  0  0  0  0  0  0
   59.3221   82.5105   29.9177 H   0  0  0  0  0  0  0  0  0  0  0  0
   60.9084   81.7290   29.5168 H   0  0  0  0  0  0  0  0  0  0  0  0
   55.9580   80.2820   28.4670 H   0  0  0  0  0  0  0  0  0  0  0  0
   56.4004   77.1411   29.9443 H   0  0  0  0  0  0  0  0  0  0  0  0
   54.7921   75.2438   29.9024 H   0  0  0  0  0  0  0  0  0  0  0  0
   52.8172   75.3297   28.3840 H   0  0  0  0  0  0  0  0  0  0  0  0
   52.5054   77.2675   26.8654 H   0  0  0  0  0  0  0  0  0  0  0  0
   55.1083   79.7490   26.2111 H   0  0  0  0  0  0  0  0  0  0  0  0
   52.3035   80.3157   27.2822 H   0  0  0  0  0  0  0  0  0  0  0  0
   53.8558   81.0716   27.8249 H   0  0  0  0  0  0  0  0  0  0  0  0
   52.5577   82.5240   26.2623 H   0  0  0  0  0  0  0  0  0  0  0  0
   54.1922   82.0591   25.6344 H   0  0  0  0  0  0  0  0  0  0  0  0
   51.5061   80.8538   24.8393 H   0  0  0  0  0  0  0  0  0  0  0  0
   52.5923   81.9073   23.8390 H   0  0  0  0  0  0  0  0  0  0  0  0
   52.7418   79.4784   23.2615 H   0  0  0  0  0  0  0  0  0  0  0  0
   54.3039   80.2157   23.8115 H   0  0  0  0  0  0  0  0  0  0  0  0
   52.4260   78.4617   25.4592 H   0  0  0  0  0  0  0  0  0  0  0  0
   54.0588   78.0240   24.8129 H   0  0  0  0  0  0  0  0  0  0  0  0
  1  2  2  0
  2  3  1  0
  3  4  1  0
  4  5  1  0
  5  6  1  0
  6  7  1  0
  7  8  1  0
  8  9  1  0
  2 10  1  0
 10 11  1  0
 11 12  2  0
 12 13  1  0
 13 14  2  0
 14 15  1  0
 15 16  2  0
 16 17  1  0
 17 18  1  0
 18 19  1  0
 19 20  1  0
 20 21  1  0
 21 22  1  0
  9  4  1  0
 16 11  1  0
 22 17  1  0
  3 23  1  0
  3 24  1  0
  5 25  1  0
  5 26  1  0
  6 27  1  0
  6 28  1  0
  8 29  1  0
  8 30  1  0
  9 31  1  0
  9 32  1  0
 10 33  1  0
 12 34  1  0
 13 35  1  0
 14 36  1  0
 15 37  1  0
 17 38  1  0
 18 39  1  0
 18 40  1  0
 19 41  1  0
 19 42  1  0
 20 43  1  0
 20 44  1  0
 21 45  1  0
 21 46  1  0
 22 47  1  0
 22 48  1  0
M  END
>  <meeko>  (1) 
{"is_sidechain": false}

>  <smiles>  (1) 
O=C(CN1CCOCC1)Nc1ccccc1C1CCCCC1

>  <vina_score>  (1) 
-8.124

>  <job_id>  (1) 
2c8ed9c27d7ec0f2

$$$$
