
     RDKit          3D

 35 36  0  0  0  0  0  0  0  0999 V2000
   53.6720   78.3890   24.8020 C   0  0  0  0  0  0  0  0  0  0  0  0
   53.2280   78.7390   26.4830 S   0  0  0  0  0  0  0  0  0  0  0  0
   52.5930   80.0430   26.5200 O   0  0  0  0  0  0  0  0  0  0  0  0
   52.5610   77.5720   27.0260 O   0  0  0  0  0  0  0  0  0  0  0  0
   54.8010   78.8860   27.2960 C   0  0  0  0  0  0  0  0  0  0  0  0
   55.7080   79.8600   26.8760 C   0  0  0  0  0  0  0  0  0  0  0  0
   56.9460   79.9630   27.5150 C   0  0  0  0  0  0  0  0  0  0  0  0
   57.3000   79.0940   28.5600 C   0  0  0  0  0  0  0  0  0  0  0  0
   58.5430   79.2700   29.1930 N   0  0  0  0  0  0  0  0  0  0  0  0
   59.0340   80.2800   30.0400 C   0  0  0  0  0  0  0  0  0  0  0  0
   59.8130   81.3480   29.5760 C   0  0  0  0  0  0  0  0  0  0  0  0
   60.2530   82.3520   30.4440 C   0  0  0  0  0  0  0  0  0  0  0  0
   59.8970   82.3010   31.7920 C   0  0  0  0  0  0  0  0  0  0  0  0
   60.4760   83.5510   32.9010 S   0  0  0  0  0  0  0  0  0  0  0  0
   60.0600   82.9080   34.3950 N   0  0  0  0  0  0  0  0  0  0  0  0
   61.9200   83.5810   32.8690 O   0  0  0  0  0  0  0  0  0  0  0  0
   59.6730   84.7390   32.7410 O   0  0  0  0  0  0  0  0  0  0  0  0
   59.1270   81.2450   32.2790 C   0  0  0  0  0  0  0  0  0  0  0  0
   58.6950   80.2460   31.4020 C   0  0  0  0  0  0  0  0  0  0  0  0
   56.3750   78.1190   28.9550 C   0  0  0  0  0  0  0  0  0  0  0  0
   55.1330   78.0040   28.3230 C   0  0  0  0  0  0  0  0  0  0  0  0
   54.5358   77.7081   24.7851 H   0  0  0  0  0  0  0  0  0  0  0  0
   52.8218   77.9156   24.2892 H   0  0  0  0  0  0  0  0  0  0  0  0
   53.9338   79.3263   24.2892 H   0  0  0  0  0  0  0  0  0  0  0  0
   55.4507   80.5396   26.0502 H   0  0  0  0  0  0  0  0  0  0  0  0
   57.6565   80.7389   27.1938 H   0  0  0  0  0  0  0  0  0  0  0  0
   59.1890   78.5020   29.0500 H   0  0  0  0  0  0  0  0  0  0  0  0
   60.0831   81.3975   28.5108 H   0  0  0  0  0  0  0  0  0  0  0  0
   60.8757   83.1765   30.0666 H   0  0  0  0  0  0  0  0  0  0  0  0
   60.2350   81.9020   34.4000 H   0  0  0  0  0  0  0  0  0  0  0  0
   60.5450   83.4140   35.1360 H   0  0  0  0  0  0  0  0  0  0  0  0
   58.8616   81.1987   33.3455 H   0  0  0  0  0  0  0  0  0  0  0  0
   58.0790   79.4192   31.7854 H   0  0  0  0  0  0  0  0  0  0  0  0
   56.6299   77.4326   29.7759 H   0  0  0  0  0  0  0  0  0  0  0  0
   54.4232   77.2233   28.6340 H   0  0  0  0  0  0  0  0  0  0  0  0
  1  2  1  0
  2  3  2  0
  2  4  2  0
  2  5  1  0
  5  6  1  0
  6  7  2  0
  7  8  1  0
  8  9  1  0
  9 10  1  0
 10 11  1  0
 11 12  2  0
 12 13  1  0
 13 14  1  0
 14 15  1  0
 14 16  2  0
 14 17  2  0
 13 18  2  0
 18 19  1  0
  8 20  2  0
 20 21  1  0
 21  5  2  0
 19 10  2  0
  1 22  1  0
  1 23  1  0
  1 24  1  0
  6 25  1  0
  7 26  1  0
  9 27  1  0
 11 28  1  0
 12 29  1  0
 15 30  1  0
 15 31  1  0
 18 32  1  0
 19 33  1  0
 20 34  1  0
 21 35  1  0
M  END
>  <meeko>  (1) 
{"is_sidechain": false}

>  <smiles>  (1) 
CS(=O)(=O)c1ccc(Nc2ccc(S(N)(=O)=O)cc2)cc1

>  <vina_score>  (1) 
-7.535

>  <job_id>  (1) 
2d288a6e31278562

$$$$
