
     RDKit          3D

 39 40  0  0  0  0  0  0  0  0999 V2000
   62.4160   82.7370   31.3660 C   0  0  0  0  0  0  0  0  0  0  0  0
   62.1410   81.8370   32.5430 C   0  0  0  0  0  0  0  0  0  0  0  0
   63.2430   81.3570   33.2760 C   0  0  0  0  0  0  0  0  0  0  0  0
   63.0600   80.5470   34.3930 C   0  0  0  0  0  0  0  0  0  0  0  0
   61.7750   80.2040   34.7900 C   0  0  0  0  0  0  0  0  0  0  0  0
   60.6760   80.6620   34.0610 C   0  0  0  0  0  0  0  0  0  0  0  0
   60.8300   81.4690   32.9190 C   0  0  0  0  0  0  0  0  0  0  0  0
   59.7290   81.8730   32.1430 N   0  0  0  0  0  0  0  0  0  0  0  0
   59.0790   83.1310   32.5260 C   0  0  0  0  0  0  0  0  0  0  0  0
   58.7820   80.7810   31.8050 C   0  0  0  0  0  0  0  0  0  0  0  0
   58.8590   80.3570   30.3300 C   0  0  0  0  0  0  0  0  0  0  0  0
   59.7240   80.8040   29.5830 O   0  0  0  0  0  0  0  0  0  0  0  0
   57.8830   79.4310   29.9900 N   0  0  0  0  0  0  0  0  0  0  0  0
   57.5010   79.1400   28.6950 C   0  0  0  0  0  0  0  0  0  0  0  0
   58.1850   79.3360   27.6960 O   0  0  0  0  0  0  0  0  0  0  0  0
   56.1650   78.4980   28.5230 C   0  0  0  0  0  0  0  0  0  0  0  0
   55.8710   77.3520   29.2780 C   0  0  0  0  0  0  0  0  0  0  0  0
   54.6360   76.7120   29.1450 C   0  0  0  0  0  0  0  0  0  0  0  0
   53.6810   77.2110   28.2590 C   0  0  0  0  0  0  0  0  0  0  0  0
   53.9600   78.3530   27.5100 C   0  0  0  0  0  0  0  0  0  0  0  0
   55.1930   78.9870   27.6480 C   0  0  0  0  0  0  0  0  0  0  0  0
   55.4200   80.0890   26.9150 F   0  0  0  0  0  0  0  0  0  0  0  0
   62.7196   83.7306   31.7273 H   0  0  0  0  0  0  0  0  0  0  0  0
   63.2235   82.3062   30.7558 H   0  0  0  0  0  0  0  0  0  0  0  0
   61.5056   82.8311   30.7558 H   0  0  0  0  0  0  0  0  0  0  0  0
   64.2623   81.6257   32.9617 H   0  0  0  0  0  0  0  0  0  0  0  0
   63.9295   80.1805   34.9584 H   0  0  0  0  0  0  0  0  0  0  0  0
   61.6228   79.5723   35.6776 H   0  0  0  0  0  0  0  0  0  0  0  0
   59.6631   80.3846   34.3881 H   0  0  0  0  0  0  0  0  0  0  0  0
   59.0408   83.2049   33.6229 H   0  0  0  0  0  0  0  0  0  0  0  0
   59.6523   83.9780   32.1212 H   0  0  0  0  0  0  0  0  0  0  0  0
   58.0564   83.1534   32.1212 H   0  0  0  0  0  0  0  0  0  0  0  0
   59.0138   79.9085   32.4334 H   0  0  0  0  0  0  0  0  0  0  0  0
   57.7649   81.1584   31.9870 H   0  0  0  0  0  0  0  0  0  0  0  0
   57.1840   79.2690   30.7080 H   0  0  0  0  0  0  0  0  0  0  0  0
   56.6187   76.9545   29.9800 H   0  0  0  0  0  0  0  0  0  0  0  0
   54.4165   75.8132   29.7399 H   0  0  0  0  0  0  0  0  0  0  0  0
   52.7104   76.7046   28.1517 H   0  0  0  0  0  0  0  0  0  0  0  0
   53.2092   78.7523   26.8123 H   0  0  0  0  0  0  0  0  0  0  0  0
  1  2  1  0
  2  3  2  0
  3  4  1  0
  4  5  2  0
  5  6  1  0
  6  7  2  0
  7  8  1  0
  8  9  1  0
  8 10  1  0
 10 11  1  0
 11 12  2  0
 11 13  1  0
 13 14  1  0
 14 15  2  0
 14 16  1  0
 16 17  2  0
 17 18  1  0
 18 19  2  0
 19 20  1  0
 20 21  2  0
 21 22  1  0
  7  2  1  0
 21 16  1  0
  1 23  1  0
  1 24  1  0
  1 25  1  0
  3 26  1  0
  4 27  1  0
  5 28  1  0
  6 29  1  0
  9 30  1  0
  9 31  1  0
  9 32  1  0
 10 33  1  0
 10 34  1  0
 13 35  1  0
 17 36  1  0
 18 37  1  0
 19 38  1  0
 20 39  1  0
M  END
>  <meeko>  (1) 
{"is_sidechain": false}

>  <smiles>  (1) 
Cc1ccccc1N(C)CC(=O)NC(=O)c1ccccc1F

>  <vina_score>  (1) 
-7.925

>  <job_id>  (1) 
2d6a59ff50f63761

$$$$
