
     RDKit          3D

 38 40  0  0  0  0  0  0  0  0999 V2000
   58.5600   78.7440   27.6640 O   0  0  0  0  0  0  0  0  0  0  0  0
   57.7810   79.1260   28.5350 C   0  0  0  0  0  0  0  0  0  0  0  0
   56.3530   78.7280   28.4630 C   0  0  0  0  0  0  0  0  0  0  0  0
   55.4360   79.4130   27.6570 C   0  0  0  0  0  0  0  0  0  0  0  0
   54.1040   78.9980   27.6090 C   0  0  0  0  0  0  0  0  0  0  0  0
   53.6870   77.8950   28.3560 C   0  0  0  0  0  0  0  0  0  0  0  0
   54.6030   77.1960   29.1430 C   0  0  0  0  0  0  0  0  0  0  0  0
   55.9350   77.6080   29.1930 C   0  0  0  0  0  0  0  0  0  0  0  0
   58.2990   79.9740   29.6380 C   0  0  0  0  0  0  0  0  0  0  0  0
   57.8100   79.8570   30.9460 C   0  0  0  0  0  0  0  0  0  0  0  0
   58.3350   80.6650   31.9570 C   0  0  0  0  0  0  0  0  0  0  0  0
   59.3650   81.5660   31.6690 C   0  0  0  0  0  0  0  0  0  0  0  0
   59.8830   82.4210   32.7600 C   0  0  0  0  0  0  0  0  0  0  0  0
   59.3760   83.5300   32.9170 O   0  0  0  0  0  0  0  0  0  0  0  0
   60.8950   81.9300   33.5620 N   0  0  0  0  0  0  0  0  0  0  0  0
   61.3700   80.5540   33.6450 C   0  0  0  0  0  0  0  0  0  0  0  0
   62.0400   80.4670   35.0100 C   0  0  0  0  0  0  0  0  0  0  0  0
   62.5450   81.8860   35.2340 C   0  0  0  0  0  0  0  0  0  0  0  0
   61.4240   82.7330   34.6500 C   0  0  0  0  0  0  0  0  0  0  0  0
   59.8520   81.6880   30.3640 C   0  0  0  0  0  0  0  0  0  0  0  0
   59.3290   80.8810   29.3520 C   0  0  0  0  0  0  0  0  0  0  0  0
   55.7648   80.2777   27.0619 H   0  0  0  0  0  0  0  0  0  0  0  0
   53.3819   79.5410   26.9815 H   0  0  0  0  0  0  0  0  0  0  0  0
   52.6346   77.5763   28.3242 H   0  0  0  0  0  0  0  0  0  0  0  0
   54.2752   76.3210   29.7234 H   0  0  0  0  0  0  0  0  0  0  0  0
   56.6587   77.0520   29.8071 H   0  0  0  0  0  0  0  0  0  0  0  0
   57.0157   79.1315   31.1756 H   0  0  0  0  0  0  0  0  0  0  0  0
   57.9381   80.5926   32.9803 H   0  0  0  0  0  0  0  0  0  0  0  0
   60.5297   79.8473   33.5780 H   0  0  0  0  0  0  0  0  0  0  0  0
   62.0553   80.2965   32.8240 H   0  0  0  0  0  0  0  0  0  0  0  0
   61.3177   80.1770   35.7873 H   0  0  0  0  0  0  0  0  0  0  0  0
   62.8375   79.7107   35.0543 H   0  0  0  0  0  0  0  0  0  0  0  0
   62.6830   82.0939   36.3053 H   0  0  0  0  0  0  0  0  0  0  0  0
   63.5251   82.0795   34.7735 H   0  0  0  0  0  0  0  0  0  0  0  0
   60.6476   82.9255   35.4051 H   0  0  0  0  0  0  0  0  0  0  0  0
   61.7756   83.7188   34.3115 H   0  0  0  0  0  0  0  0  0  0  0  0
   60.6438   82.4167   30.1357 H   0  0  0  0  0  0  0  0  0  0  0  0
   59.7256   80.9569   28.3288 H   0  0  0  0  0  0  0  0  0  0  0  0
  1  2  2  0
  2  3  1  0
  3  4  2  0
  4  5  1  0
  5  6  2  0
  6  7  1  0
  7  8  2  0
  2  9  1  0
  9 10  1  0
 10 11  2  0
 11 12  1  0
 12 13  1  0
 13 14  2  0
 13 15  1  0
 15 16  1  0
 16 17  1  0
 17 18  1  0
 18 19  1  0
 12 20  2  0
 20 21  1  0
  8  3  1  0
 21  9  2  0
 19 15  1  0
  4 22  1  0
  5 23  1  0
  6 24  1  0
  7 25  1  0
  8 26  1  0
 10 27  1  0
 11 28  1  0
 16 29  1  0
 16 30  1  0
 17 31  1  0
 17 32  1  0
 18 33  1  0
 18 34  1  0
 19 35  1  0
 19 36  1  0
 20 37  1  0
 21 38  1  0
M  END
>  <meeko>  (1) 
{"is_sidechain": false}

>  <smiles>  (1) 
O=C(c1ccccc1)c1ccc(C(=O)N2CCCC2)cc1

>  <vina_score>  (1) 
-7.812

>  <job_id>  (1) 
2dade5d4cff15105

$$$$
