
     RDKit          3D

 45 47  0  0  0  0  0  0  0  0999 V2000
   57.8100   81.1040   33.3620 C   0  0  0  0  0  0  0  0  0  0  0  0
   58.4830   81.1800   32.0210 C   0  0  0  0  0  0  0  0  0  0  0  0
   58.2070   80.2190   31.0360 C   0  0  0  0  0  0  0  0  0  0  0  0
   58.8410   80.2620   29.7830 C   0  0  0  0  0  0  0  0  0  0  0  0
   58.5600   79.2050   28.7440 C   0  0  0  0  0  0  0  0  0  0  0  0
   57.4460   79.5900   27.9090 N   0  0  0  0  0  0  0  0  0  0  0  0
   56.2110   78.9960   28.0390 C   0  0  0  0  0  0  0  0  0  0  0  0
   56.0070   78.0510   28.7960 O   0  0  0  0  0  0  0  0  0  0  0  0
   55.1330   79.5770   27.2330 C   0  0  0  0  0  0  0  0  0  0  0  0
   53.7690   79.1160   27.2740 C   0  0  0  0  0  0  0  0  0  0  0  0
   52.9350   79.8120   26.4280 C   0  0  0  0  0  0  0  0  0  0  0  0
   53.7740   81.0170   25.5590 S   0  0  0  0  0  0  0  0  0  0  0  0
   55.2550   80.6060   26.3140 C   0  0  0  0  0  0  0  0  0  0  0  0
   59.7770   81.2730   29.5210 C   0  0  0  0  0  0  0  0  0  0  0  0
   60.0630   82.2360   30.4880 C   0  0  0  0  0  0  0  0  0  0  0  0
   59.4050   82.1970   31.7200 C   0  0  0  0  0  0  0  0  0  0  0  0
   59.7380   83.2400   32.7120 C   0  0  0  0  0  0  0  0  0  0  0  0
   59.1020   84.2890   32.6800 O   0  0  0  0  0  0  0  0  0  0  0  0
   60.7540   82.9720   33.6190 N   0  0  0  0  0  0  0  0  0  0  0  0
   61.4940   81.7060   33.7050 C   0  0  0  0  0  0  0  0  0  0  0  0
   62.1510   81.5160   35.0830 C   0  0  0  0  0  0  0  0  0  0  0  0
   63.0610   82.6040   35.4790 N   0  0  0  0  0  0  0  0  0  0  0  0
   62.6410   83.9100   34.9420 C   0  0  0  0  0  0  0  0  0  0  0  0
   61.1550   84.0210   34.5570 C   0  0  0  0  0  0  0  0  0  0  0  0
   58.5656   81.1893   34.1568 H   0  0  0  0  0  0  0  0  0  0  0  0
   57.0850   81.9260   33.4555 H   0  0  0  0  0  0  0  0  0  0  0  0
   57.2866   80.1410   33.4555 H   0  0  0  0  0  0  0  0  0  0  0  0
   57.4825   79.4191   31.2485 H   0  0  0  0  0  0  0  0  0  0  0  0
   59.4526   79.0710   28.1153 H   0  0  0  0  0  0  0  0  0  0  0  0
   58.3081   78.2649   29.2566 H   0  0  0  0  0  0  0  0  0  0  0  0
   57.5100   80.4850   27.4500 H   0  0  0  0  0  0  0  0  0  0  0  0
   53.4280   78.2909   27.9166 H   0  0  0  0  0  0  0  0  0  0  0  0
   51.8577   79.6149   26.3248 H   0  0  0  0  0  0  0  0  0  0  0  0
   56.2077   81.1088   26.0914 H   0  0  0  0  0  0  0  0  0  0  0  0
   60.2882   81.3064   28.5476 H   0  0  0  0  0  0  0  0  0  0  0  0
   60.8034   83.0230   30.2819 H   0  0  0  0  0  0  0  0  0  0  0  0
   60.7969   80.8741   33.5260 H   0  0  0  0  0  0  0  0  0  0  0  0
   62.2916   81.7261   32.9478 H   0  0  0  0  0  0  0  0  0  0  0  0
   61.3535   81.4431   35.8371 H   0  0  0  0  0  0  0  0  0  0  0  0
   62.7628   80.6043   35.0157 H   0  0  0  0  0  0  0  0  0  0  0  0
   63.0990   82.6450   36.4970 H   0  0  0  0  0  0  0  0  0  0  0  0
   62.8514   84.6738   35.7052 H   0  0  0  0  0  0  0  0  0  0  0  0
   63.2061   84.0487   34.0085 H   0  0  0  0  0  0  0  0  0  0  0  0
   60.5444   83.9357   35.4680 H   0  0  0  0  0  0  0  0  0  0  0  0
   61.0020   84.9935   34.0663 H   0  0  0  0  0  0  0  0  0  0  0  0
  1  2  1  0
  2  3  1  0
  3  4  2  0
  4  5  1  0
  5  6  1  0
  6  7  1  0
  7  8  2  0
  7  9  1  0
  9 10  1  0
 10 11  2  0
 11 12  1  0
 12 13  1  0
  4 14  1  0
 14 15  2  0
 15 16  1  0
 16 17  1  0
 17 18  2  0
 17 19  1  0
 19 20  1  0
 20 21  1  0
 21 22  1  0
 22 23  1  0
 23 24  1  0
 16  2  2  0
 24 19  1  0
 13  9  2  0
  1 25  1  0
  1 26  1  0
  1 27  1  0
  3 28  1  0
  5 29  1  0
  5 30  1  0
  6 31  1  0
 10 32  1  0
 11 33  1  0
 13 34  1  0
 14 35  1  0
 15 36  1  0
 20 37  1  0
 20 38  1  0
 21 39  1  0
 21 40  1  0
 22 41  1  0
 23 42  1  0
 23 43  1  0
 24 44  1  0
 24 45  1  0
M  END
>  <meeko>  (1) 
{"is_sidechain": false}

>  <smiles>  (1) 
Cc1cc(CNC(=O)c2ccsc2)ccc1C(=O)N1CCNCC1

>  <vina_score>  (1) 
-7.561

>  <job_id>  (1) 
2db0b9ca35fb7305

$$$$
