
     RDKit          3D

 68 71  0  0  0  0  0  0  0  0999 V2000
   52.6140   75.3680   27.6170 C   0  0  0  0  0  0  0  0  0  0  0  0
   52.2420   76.6550   27.6420 C   0  0  0  0  0  0  0  0  0  0  0  0
   53.2630   77.7430   27.5820 C   0  0  0  0  0  0  0  0  0  0  0  0
   53.0740   78.7450   26.9060 O   0  0  0  0  0  0  0  0  0  0  0  0
   54.3690   77.4470   28.3520 N   0  0  0  0  0  0  0  0  0  0  0  0
   55.5190   78.2450   28.5410 C   0  0  0  0  0  0  0  0  0  0  0  0
   56.1820   78.1270   29.7720 C   0  0  0  0  0  0  0  0  0  0  0  0
   57.3270   78.8800   30.0440 C   0  0  0  0  0  0  0  0  0  0  0  0
   57.7980   79.7710   29.0840 C   0  0  0  0  0  0  0  0  0  0  0  0
   58.9690   80.5150   29.2810 O   0  0  0  0  0  0  0  0  0  0  0  0
   58.8610   81.6970   30.0110 C   0  0  0  0  0  0  0  0  0  0  0  0
   58.7390   82.8140   29.5160 O   0  0  0  0  0  0  0  0  0  0  0  0
   58.8940   81.4720   31.3780 N   0  0  0  0  0  0  0  0  0  0  0  0
   57.9240   82.0660   32.2960 C   0  0  0  0  0  0  0  0  0  0  0  0
   57.8990   81.3540   33.6440 C   0  0  0  0  0  0  0  0  0  0  0  0
   59.2780   81.3010   34.3110 C   0  0  0  0  0  0  0  0  0  0  0  0
   60.4470   81.2300   33.3100 C   0  0  0  0  0  0  0  0  0  0  0  0
   60.9970   82.5720   33.1040 N   0  0  0  0  0  0  0  0  0  0  0  0
   62.0840   82.7470   32.3230 C   0  0  0  0  0  0  0  0  0  0  0  0
   62.0970   83.4000   31.1850 N   0  0  0  0  0  0  0  0  0  0  0  0
   63.3710   83.3830   30.6450 C   0  0  0  0  0  0  0  0  0  0  0  0
   64.3200   82.7010   31.3750 C   0  0  0  0  0  0  0  0  0  0  0  0
   66.0200   82.4750   31.0180 S   0  0  0  0  0  0  0  0  0  0  0  0
   66.6120   84.1960   30.9930 C   0  0  0  0  0  0  0  0  0  0  0  0
   66.3040   84.8700   29.7060 C   0  0  0  0  0  0  0  0  0  0  0  0
   66.6490   84.5220   28.4820 N   0  0  0  0  0  0  0  0  0  0  0  0
   66.1000   85.5010   27.6940 C   0  0  0  0  0  0  0  0  0  0  0  0
   65.4390   86.4260   28.4720 C   0  0  0  0  0  0  0  0  0  0  0  0
   64.6590   87.6830   28.2150 C   0  0  0  0  0  0  0  0  0  0  0  0
   65.5230   88.9280   28.4810 C   0  0  0  0  0  0  0  0  0  0  0  0
   64.1930   87.7120   26.7480 C   0  0  0  0  0  0  0  0  0  0  0  0
   63.4310   87.7300   29.1420 C   0  0  0  0  0  0  0  0  0  0  0  0
   65.5730   86.0260   29.7760 O   0  0  0  0  0  0  0  0  0  0  0  0
   63.5990   82.0830   32.7980 S   0  0  0  0  0  0  0  0  0  0  0  0
   59.9700   80.6630   31.9560 C   0  0  0  0  0  0  0  0  0  0  0  0
   57.1660   79.8890   27.8500 C   0  0  0  0  0  0  0  0  0  0  0  0
   56.0220   79.1290   27.5820 C   0  0  0  0  0  0  0  0  0  0  0  0
   51.8533   74.5747   27.6617 H   0  0  0  0  0  0  0  0  0  0  0  0
   53.6800   75.1048   27.5517 H   0  0  0  0  0  0  0  0  0  0  0  0
   51.1746   76.9125   27.7073 H   0  0  0  0  0  0  0  0  0  0  0  0
   54.3700   76.5650   28.8440 H   0  0  0  0  0  0  0  0  0  0  0  0
   55.7953   77.4328   30.5326 H   0  0  0  0  0  0  0  0  0  0  0  0
   57.8500   78.7700   31.0054 H   0  0  0  0  0  0  0  0  0  0  0  0
   58.1886   83.1215   32.4573 H   0  0  0  0  0  0  0  0  0  0  0  0
   56.9261   81.9692   31.8434 H   0  0  0  0  0  0  0  0  0  0  0  0
   57.2058   81.8876   34.3109 H   0  0  0  0  0  0  0  0  0  0  0  0
   57.5760   80.3176   33.4662 H   0  0  0  0  0  0  0  0  0  0  0  0
   59.4015   82.2047   34.9258 H   0  0  0  0  0  0  0  0  0  0  0  0
   59.3106   80.3788   34.9098 H   0  0  0  0  0  0  0  0  0  0  0  0
   61.2208   80.5652   33.7214 H   0  0  0  0  0  0  0  0  0  0  0  0
   60.3490   83.3450   33.2080 H   0  0  0  0  0  0  0  0  0  0  0  0
   63.6106   83.8818   29.6943 H   0  0  0  0  0  0  0  0  0  0  0  0
   66.1269   84.7506   31.8097 H   0  0  0  0  0  0  0  0  0  0  0  0
   67.7049   84.1819   31.1169 H   0  0  0  0  0  0  0  0  0  0  0  0
   66.1765   85.5418   26.5974 H   0  0  0  0  0  0  0  0  0  0  0  0
   65.6267   89.0774   29.5659 H   0  0  0  0  0  0  0  0  0  0  0  0
   66.5179   88.7863   28.0337 H   0  0  0  0  0  0  0  0  0  0  0  0
   65.0421   89.8104   28.0337 H   0  0  0  0  0  0  0  0  0  0  0  0
   63.0957   87.7803   26.7131 H   0  0  0  0  0  0  0  0  0  0  0  0
   64.6310   88.5846   26.2413 H   0  0  0  0  0  0  0  0  0  0  0  0
   64.5194   86.7918   26.2413 H   0  0  0  0  0  0  0  0  0  0  0  0
   63.7626   87.7173   30.1908 H   0  0  0  0  0  0  0  0  0  0  0  0
   62.8608   88.6506   28.9488 H   0  0  0  0  0  0  0  0  0  0  0  0
   62.7921   86.8557   28.9488 H   0  0  0  0  0  0  0  0  0  0  0  0
   60.8192   80.6477   31.2570 H   0  0  0  0  0  0  0  0  0  0  0  0
   59.5816   79.6482   32.1272 H   0  0  0  0  0  0  0  0  0  0  0  0
   57.5637   80.5764   27.0888 H   0  0  0  0  0  0  0  0  0  0  0  0
   55.5154   79.2278   26.6106 H   0  0  0  0  0  0  0  0  0  0  0  0
  1  2  2  0
  2  3  1  0
  3  4  2  0
  3  5  1  0
  5  6  1  0
  6  7  1  0
  7  8  2  0
  8  9  1  0
  9 10  1  0
 10 11  1  0
 11 12  2  0
 11 13  1  0
 13 14  1  0
 14 15  1  0
 15 16  1  0
 16 17  1  0
 17 18  1  0
 18 19  1  0
 19 20  2  0
 20 21  1  0
 21 22  2  0
 22 23  1  0
 23 24  1  0
 24 25  1  0
 25 26  2  0
 26 27  1  0
 27 28  2  0
 28 29  1  0
 29 30  1  0
 29 31  1  0
 29 32  1  0
 28 33  1  0
 22 34  1  0
 17 35  1  0
  9 36  2  0
 36 37  1  0
 37  6  2  0
 35 13  1  0
 34 19  1  0
 33 25  1  0
  1 38  1  0
  1 39  1  0
  2 40  1  0
  5 41  1  0
  7 42  1  0
  8 43  1  0
 14 44  1  0
 14 45  1  0
 15 46  1  0
 15 47  1  0
 16 48  1  0
 16 49  1  0
 17 50  1  0
 18 51  1  0
 21 52  1  0
 24 53  1  0
 24 54  1  0
 27 55  1  0
 30 56  1  0
 30 57  1  0
 30 58  1  0
 31 59  1  0
 31 60  1  0
 31 61  1  0
 32 62  1  0
 32 63  1  0
 32 64  1  0
 35 65  1  0
 35 66  1  0
 36 67  1  0
 37 68  1  0
M  END
>  <meeko>  (1) 
{"is_sidechain": false}

>  <smiles>  (1) 
C=CC(=O)Nc1ccc(OC(=O)N2CCCC(Nc3ncc(SCc4ncc(C(C)(C)C)o4)s3)C2)cc1

>  <vina_score>  (1) 
-7.973

>  <job_id>  (1) 
2e5821a953c7c356

$$$$
