
     RDKit          3D

 44 46  0  0  0  0  0  0  0  0999 V2000
   59.0930   79.5640   28.8470 O   0  0  0  0  0  0  0  0  0  0  0  0
   58.2860   79.8050   29.7380 C   0  0  0  0  0  0  0  0  0  0  0  0
   57.1100   79.1070   29.9140 N   0  0  0  0  0  0  0  0  0  0  0  0
   56.6830   78.1000   28.9680 C   0  0  0  0  0  0  0  0  0  0  0  0
   55.6430   78.6540   28.0310 C   0  0  0  0  0  0  0  0  0  0  0  0
   54.3500   78.1220   28.0140 C   0  0  0  0  0  0  0  0  0  0  0  0
   53.3840   78.6140   27.1250 C   0  0  0  0  0  0  0  0  0  0  0  0
   53.6710   79.6510   26.2270 C   0  0  0  0  0  0  0  0  0  0  0  0
   52.7340   80.1740   25.3250 N   0  0  0  0  0  0  0  0  0  0  0  0
   52.9350   79.7420   23.9270 C   0  0  0  0  0  0  0  0  0  0  0  0
   52.1820   80.6400   22.9480 C   0  0  0  0  0  0  0  0  0  0  0  0
   52.5870   82.1070   23.1000 C   0  0  0  0  0  0  0  0  0  0  0  0
   52.8290   82.5070   24.5580 C   0  0  0  0  0  0  0  0  0  0  0  0
   52.1850   81.5220   25.5270 C   0  0  0  0  0  0  0  0  0  0  0  0
   54.9780   80.1680   26.2550 C   0  0  0  0  0  0  0  0  0  0  0  0
   55.9510   79.6800   27.1360 C   0  0  0  0  0  0  0  0  0  0  0  0
   58.5320   80.9280   30.6840 C   0  0  0  0  0  0  0  0  0  0  0  0
   59.0740   82.1510   30.2630 C   0  0  0  0  0  0  0  0  0  0  0  0
   59.2860   83.1760   31.1870 C   0  0  0  0  0  0  0  0  0  0  0  0
   58.9530   82.9890   32.5290 C   0  0  0  0  0  0  0  0  0  0  0  0
   58.4000   81.7810   32.9500 C   0  0  0  0  0  0  0  0  0  0  0  0
   58.1850   80.7530   32.0290 C   0  0  0  0  0  0  0  0  0  0  0  0
   56.3880   79.5160   30.4910 H   0  0  0  0  0  0  0  0  0  0  0  0
   57.5518   77.7625   28.3837 H   0  0  0  0  0  0  0  0  0  0  0  0
   56.2446   77.2577   29.5233 H   0  0  0  0  0  0  0  0  0  0  0  0
   54.0878   77.3082   28.7060 H   0  0  0  0  0  0  0  0  0  0  0  0
   52.3754   78.1750   27.1325 H   0  0  0  0  0  0  0  0  0  0  0  0
   54.0091   79.7797   23.6925 H   0  0  0  0  0  0  0  0  0  0  0  0
   52.5464   78.7181   23.8238 H   0  0  0  0  0  0  0  0  0  0  0  0
   52.4042   80.3133   21.9214 H   0  0  0  0  0  0  0  0  0  0  0  0
   51.1066   80.5569   23.1640 H   0  0  0  0  0  0  0  0  0  0  0  0
   53.5126   82.2770   22.5305 H   0  0  0  0  0  0  0  0  0  0  0  0
   51.7567   82.7211   22.7212 H   0  0  0  0  0  0  0  0  0  0  0  0
   53.9126   82.5343   24.7451 H   0  0  0  0  0  0  0  0  0  0  0  0
   52.3757   83.4957   24.7222 H   0  0  0  0  0  0  0  0  0  0  0  0
   52.3860   81.8446   26.5592 H   0  0  0  0  0  0  0  0  0  0  0  0
   51.1006   81.4975   25.3439 H   0  0  0  0  0  0  0  0  0  0  0  0
   55.2446   80.9809   25.5636 H   0  0  0  0  0  0  0  0  0  0  0  0
   56.9643   80.1078   27.1227 H   0  0  0  0  0  0  0  0  0  0  0  0
   59.3322   82.3028   29.2045 H   0  0  0  0  0  0  0  0  0  0  0  0
   59.7164   84.1328   30.8564 H   0  0  0  0  0  0  0  0  0  0  0  0
   59.1272   83.7962   33.2557 H   0  0  0  0  0  0  0  0  0  0  0  0
   58.1329   81.6371   34.0073 H   0  0  0  0  0  0  0  0  0  0  0  0
   57.7416   79.8029   32.3616 H   0  0  0  0  0  0  0  0  0  0  0  0
  1  2  2  0
  2  3  1  0
  3  4  1  0
  4  5  1  0
  5  6  1  0
  6  7  2  0
  7  8  1  0
  8  9  1  0
  9 10  1  0
 10 11  1  0
 11 12  1  0
 12 13  1  0
 13 14  1  0
  8 15  2  0
 15 16  1  0
  2 17  1  0
 17 18  2  0
 18 19  1  0
 19 20  2  0
 20 21  1  0
 21 22  2  0
 16  5  2  0
 22 17  1  0
 14  9  1  0
  3 23  1  0
  4 24  1  0
  4 25  1  0
  6 26  1  0
  7 27  1  0
 10 28  1  0
 10 29  1  0
 11 30  1  0
 11 31  1  0
 12 32  1  0
 12 33  1  0
 13 34  1  0
 13 35  1  0
 14 36  1  0
 14 37  1  0
 15 38  1  0
 16 39  1  0
 18 40  1  0
 19 41  1  0
 20 42  1  0
 21 43  1  0
 22 44  1  0
M  END
>  <meeko>  (1) 
{"is_sidechain": false}

>  <smiles>  (1) 
O=C(NCc1ccc(N2CCCCC2)cc1)c1ccccc1

>  <vina_score>  (1) 
-8.135

>  <job_id>  (1) 
2eb55467153a527f

$$$$
