
     RDKit          3D

 40 42  0  0  0  0  0  0  0  0999 V2000
   58.5680   79.4680   28.1730 O   0  0  0  0  0  0  0  0  0  0  0  0
   57.7010   79.4910   29.0400 C   0  0  0  0  0  0  0  0  0  0  0  0
   57.7840   80.1700   30.2440 N   0  0  0  0  0  0  0  0  0  0  0  0
   58.8610   80.9400   30.7300 C   0  0  0  0  0  0  0  0  0  0  0  0
   59.4560   81.9900   30.0240 C   0  0  0  0  0  0  0  0  0  0  0  0
   60.5240   82.7040   30.5800 C   0  0  0  0  0  0  0  0  0  0  0  0
   60.9910   82.3820   31.8560 C   0  0  0  0  0  0  0  0  0  0  0  0
   62.1280   83.1440   32.4150 C   0  0  0  0  0  0  0  0  0  0  0  0
   61.9100   83.9390   33.3250 O   0  0  0  0  0  0  0  0  0  0  0  0
   63.3880   82.9170   31.8930 N   0  0  0  0  0  0  0  0  0  0  0  0
   63.7970   81.8250   31.0200 C   0  0  0  0  0  0  0  0  0  0  0  0
   65.3050   81.7320   31.2110 C   0  0  0  0  0  0  0  0  0  0  0  0
   65.6960   83.1660   31.5470 C   0  0  0  0  0  0  0  0  0  0  0  0
   64.5380   83.6310   32.4160 C   0  0  0  0  0  0  0  0  0  0  0  0
   60.4210   81.3210   32.5610 C   0  0  0  0  0  0  0  0  0  0  0  0
   59.3580   80.6080   31.9990 C   0  0  0  0  0  0  0  0  0  0  0  0
   56.4360   78.7320   28.7860 C   0  0  0  0  0  0  0  0  0  0  0  0
   56.1640   77.6040   29.5780 C   0  0  0  0  0  0  0  0  0  0  0  0
   54.9970   76.8600   29.3820 C   0  0  0  0  0  0  0  0  0  0  0  0
   54.0870   77.2330   28.3950 C   0  0  0  0  0  0  0  0  0  0  0  0
   54.3460   78.3490   27.6020 C   0  0  0  0  0  0  0  0  0  0  0  0
   55.5110   79.0880   27.8010 C   0  0  0  0  0  0  0  0  0  0  0  0
   55.7170   80.1550   27.0120 F   0  0  0  0  0  0  0  0  0  0  0  0
   56.9780   80.1130   30.8570 H   0  0  0  0  0  0  0  0  0  0  0  0
   59.0822   82.2569   29.0245 H   0  0  0  0  0  0  0  0  0  0  0  0
   60.9956   83.5191   30.0115 H   0  0  0  0  0  0  0  0  0  0  0  0
   63.3083   80.8853   31.3170 H   0  0  0  0  0  0  0  0  0  0  0  0
   63.5172   81.9998   29.9706 H   0  0  0  0  0  0  0  0  0  0  0  0
   65.5579   81.0495   32.0358 H   0  0  0  0  0  0  0  0  0  0  0  0
   65.8302   81.3341   30.3302 H   0  0  0  0  0  0  0  0  0  0  0  0
   66.6460   83.1992   32.1005 H   0  0  0  0  0  0  0  0  0  0  0  0
   65.8566   83.7951   30.6590 H   0  0  0  0  0  0  0  0  0  0  0  0
   64.7125   83.3697   33.4702 H   0  0  0  0  0  0  0  0  0  0  0  0
   64.4034   84.7224   32.3881 H   0  0  0  0  0  0  0  0  0  0  0  0
   60.8064   81.0471   33.5542 H   0  0  0  0  0  0  0  0  0  0  0  0
   58.9056   79.7762   32.5589 H   0  0  0  0  0  0  0  0  0  0  0  0
   56.8765   77.3033   30.3602 H   0  0  0  0  0  0  0  0  0  0  0  0
   54.7966   75.9782   30.0083 H   0  0  0  0  0  0  0  0  0  0  0  0
   53.1676   76.6487   28.2424 H   0  0  0  0  0  0  0  0  0  0  0  0
   53.6320   78.6465   26.8199 H   0  0  0  0  0  0  0  0  0  0  0  0
  1  2  2  0
  2  3  1  0
  3  4  1  0
  4  5  1  0
  5  6  2  0
  6  7  1  0
  7  8  1  0
  8  9  2  0
  8 10  1  0
 10 11  1  0
 11 12  1  0
 12 13  1  0
 13 14  1  0
  7 15  2  0
 15 16  1  0
  2 17  1  0
 17 18  2  0
 18 19  1  0
 19 20  2  0
 20 21  1  0
 21 22  2  0
 22 23  1  0
 16  4  2  0
 22 17  1  0
 14 10  1  0
  3 24  1  0
  5 25  1  0
  6 26  1  0
 11 27  1  0
 11 28  1  0
 12 29  1  0
 12 30  1  0
 13 31  1  0
 13 32  1  0
 14 33  1  0
 14 34  1  0
 15 35  1  0
 16 36  1  0
 18 37  1  0
 19 38  1  0
 20 39  1  0
 21 40  1  0
M  END
>  <meeko>  (1) 
{"is_sidechain": false}

>  <smiles>  (1) 
O=C(Nc1ccc(C(=O)N2CCCC2)cc1)c1ccccc1F

>  <vina_score>  (1) 
-7.706

>  <job_id>  (1) 
2ed243fa69c8d6e5

$$$$
