
     RDKit          3D

 46 47  0  0  0  0  0  0  0  0999 V2000
   51.8100   75.3880   26.1440 C   0  0  0  0  0  0  0  0  0  0  0  0
   52.4460   76.0590   27.3820 C   0  0  0  0  0  0  0  0  0  0  0  0
   53.3060   74.9910   28.0910 C   0  0  0  0  0  0  0  0  0  0  0  0
   51.2890   76.4820   28.3150 C   0  0  0  0  0  0  0  0  0  0  0  0
   53.3140   77.2850   27.0490 C   0  0  0  0  0  0  0  0  0  0  0  0
   53.3090   77.8210   25.7470 C   0  0  0  0  0  0  0  0  0  0  0  0
   54.0840   78.9350   25.4090 C   0  0  0  0  0  0  0  0  0  0  0  0
   54.8970   79.5470   26.3660 C   0  0  0  0  0  0  0  0  0  0  0  0
   55.7550   80.7340   25.9970 C   0  0  0  0  0  0  0  0  0  0  0  0
   56.4990   81.3720   27.1670 C   0  0  0  0  0  0  0  0  0  0  0  0
   56.2290   82.5190   27.5170 O   0  0  0  0  0  0  0  0  0  0  0  0
   57.4130   80.5300   27.7800 N   0  0  0  0  0  0  0  0  0  0  0  0
   58.2090   80.7970   28.9100 C   0  0  0  0  0  0  0  0  0  0  0  0
   59.2070   81.7740   28.9510 C   0  0  0  0  0  0  0  0  0  0  0  0
   59.9530   81.9820   30.1170 C   0  0  0  0  0  0  0  0  0  0  0  0
   59.7040   81.2010   31.2450 C   0  0  0  0  0  0  0  0  0  0  0  0
   60.6440   81.4600   32.7250 S   0  0  0  0  0  0  0  0  0  0  0  0
   60.8520   79.8800   33.2700 N   0  0  0  0  0  0  0  0  0  0  0  0
   61.9620   81.9240   32.3550 O   0  0  0  0  0  0  0  0  0  0  0  0
   59.8140   82.1540   33.6800 O   0  0  0  0  0  0  0  0  0  0  0  0
   58.7010   80.2300   31.2260 C   0  0  0  0  0  0  0  0  0  0  0  0
   57.9580   80.0310   30.0590 C   0  0  0  0  0  0  0  0  0  0  0  0
   54.9080   79.0340   27.6650 C   0  0  0  0  0  0  0  0  0  0  0  0
   54.1300   77.9190   27.9990 C   0  0  0  0  0  0  0  0  0  0  0  0
   51.0874   74.6257   26.4708 H   0  0  0  0  0  0  0  0  0  0  0  0
   51.2930   76.1482   25.5399 H   0  0  0  0  0  0  0  0  0  0  0  0
   52.5967   74.9125   25.5399 H   0  0  0  0  0  0  0  0  0  0  0  0
   53.2115   75.1083   29.1806 H   0  0  0  0  0  0  0  0  0  0  0  0
   52.9601   73.9885   27.7988 H   0  0  0  0  0  0  0  0  0  0  0  0
   54.3592   75.1151   27.7988 H   0  0  0  0  0  0  0  0  0  0  0  0
   51.6026   76.3674   29.3631 H   0  0  0  0  0  0  0  0  0  0  0  0
   51.0288   77.5334   28.1230 H   0  0  0  0  0  0  0  0  0  0  0  0
   50.4120   75.8463   28.1230 H   0  0  0  0  0  0  0  0  0  0  0  0
   52.6798   77.3518   24.9764 H   0  0  0  0  0  0  0  0  0  0  0  0
   54.0532   79.3316   24.3835 H   0  0  0  0  0  0  0  0  0  0  0  0
   56.4991   80.4023   25.2579 H   0  0  0  0  0  0  0  0  0  0  0  0
   55.0710   81.5025   25.6079 H   0  0  0  0  0  0  0  0  0  0  0  0
   57.5760   79.6380   27.3240 H   0  0  0  0  0  0  0  0  0  0  0  0
   59.4083   82.3853   28.0589 H   0  0  0  0  0  0  0  0  0  0  0  0
   60.7321   82.7581   30.1433 H   0  0  0  0  0  0  0  0  0  0  0  0
   59.9860   79.5690   33.7110 H   0  0  0  0  0  0  0  0  0  0  0  0
   61.6540   79.7710   33.8890 H   0  0  0  0  0  0  0  0  0  0  0  0
   58.4971   79.6262   32.1226 H   0  0  0  0  0  0  0  0  0  0  0  0
   57.1680   79.2658   30.0409 H   0  0  0  0  0  0  0  0  0  0  0  0
   55.5343   79.5108   28.4334 H   0  0  0  0  0  0  0  0  0  0  0  0
   54.1588   77.5314   29.0281 H   0  0  0  0  0  0  0  0  0  0  0  0
  1  2  1  0
  2  3  1  0
  2  4  1  0
  2  5  1  0
  5  6  1  0
  6  7  2  0
  7  8  1  0
  8  9  1  0
  9 10  1  0
 10 11  2  0
 10 12  1  0
 12 13  1  0
 13 14  1  0
 14 15  2  0
 15 16  1  0
 16 17  1  0
 17 18  1  0
 17 19  2  0
 17 20  2  0
 16 21  2  0
 21 22  1  0
  8 23  2  0
 23 24  1  0
 24  5  2  0
 22 13  2  0
  1 25  1  0
  1 26  1  0
  1 27  1  0
  3 28  1  0
  3 29  1  0
  3 30  1  0
  4 31  1  0
  4 32  1  0
  4 33  1  0
  6 34  1  0
  7 35  1  0
  9 36  1  0
  9 37  1  0
 12 38  1  0
 14 39  1  0
 15 40  1  0
 18 41  1  0
 18 42  1  0
 21 43  1  0
 22 44  1  0
 23 45  1  0
 24 46  1  0
M  END
>  <meeko>  (1) 
{"is_sidechain": false}

>  <smiles>  (1) 
CC(C)(C)c1ccc(CC(=O)Nc2ccc(S(N)(=O)=O)cc2)cc1

>  <vina_score>  (1) 
-7.958

>  <job_id>  (1) 
2f1e9a947aa3e5aa

$$$$
