
     RDKit          3D

 42 44  0  0  0  0  0  0  0  0999 V2000
   52.5600   81.6480   22.0500 C   0  0  0  0  0  0  0  0  0  0  0  0
   52.8620   80.6430   23.1450 C   0  0  0  0  0  0  0  0  0  0  0  0
   53.2600   81.3300   24.4380 C   0  0  0  0  0  0  0  0  0  0  0  0
   53.3100   82.5610   24.4750 O   0  0  0  0  0  0  0  0  0  0  0  0
   53.5500   80.5510   25.5490 N   0  0  0  0  0  0  0  0  0  0  0  0
   52.5600   79.8640   26.3780 C   0  0  0  0  0  0  0  0  0  0  0  0
   53.0930   78.5210   26.8780 C   0  0  0  0  0  0  0  0  0  0  0  0
   54.4440   78.6690   27.4970 C   0  0  0  0  0  0  0  0  0  0  0  0
   54.9540   77.7620   28.3950 C   0  0  0  0  0  0  0  0  0  0  0  0
   56.1770   77.8630   28.9450 N   0  0  0  0  0  0  0  0  0  0  0  0
   56.9350   78.9050   28.5770 C   0  0  0  0  0  0  0  0  0  0  0  0
   58.2130   79.1080   29.0860 N   0  0  0  0  0  0  0  0  0  0  0  0
   58.8240   80.1370   29.8100 C   0  0  0  0  0  0  0  0  0  0  0  0
   59.6850   81.0820   29.2470 C   0  0  0  0  0  0  0  0  0  0  0  0
   60.2730   82.0890   30.0240 C   0  0  0  0  0  0  0  0  0  0  0  0
   60.0160   82.1800   31.3970 C   0  0  0  0  0  0  0  0  0  0  0  0
   60.6610   83.2690   32.2040 C   0  0  0  0  0  0  0  0  0  0  0  0
   59.1580   81.2350   31.9700 C   0  0  0  0  0  0  0  0  0  0  0  0
   58.7830   81.2640   33.6580 Cl  0  0  0  0  0  0  0  0  0  0  0  0
   58.5740   80.2320   31.1870 C   0  0  0  0  0  0  0  0  0  0  0  0
   56.5270   79.8330   27.6960 N   0  0  0  0  0  0  0  0  0  0  0  0
   55.2940   79.7050   27.1550 C   0  0  0  0  0  0  0  0  0  0  0  0
   54.8660   80.7660   26.1650 C   0  0  0  0  0  0  0  0  0  0  0  0
   52.2715   82.6081   22.5029 H   0  0  0  0  0  0  0  0  0  0  0  0
   53.4549   81.7909   21.4265 H   0  0  0  0  0  0  0  0  0  0  0  0
   51.7346   81.2740   21.4265 H   0  0  0  0  0  0  0  0  0  0  0  0
   51.9653   80.0322   23.3264 H   0  0  0  0  0  0  0  0  0  0  0  0
   53.7035   80.0162   22.8148 H   0  0  0  0  0  0  0  0  0  0  0  0
   52.3152   80.4974   27.2434 H   0  0  0  0  0  0  0  0  0  0  0  0
   51.6641   79.6775   25.7677 H   0  0  0  0  0  0  0  0  0  0  0  0
   52.3976   78.1166   27.6283 H   0  0  0  0  0  0  0  0  0  0  0  0
   53.1780   77.8399   26.0185 H   0  0  0  0  0  0  0  0  0  0  0  0
   54.3262   76.9049   28.6800 H   0  0  0  0  0  0  0  0  0  0  0  0
   58.7750   78.2940   28.8790 H   0  0  0  0  0  0  0  0  0  0  0  0
   59.9062   81.0346   28.1705 H   0  0  0  0  0  0  0  0  0  0  0  0
   60.9457   82.8179   29.5485 H   0  0  0  0  0  0  0  0  0  0  0  0
   60.5344   83.0553   33.2756 H   0  0  0  0  0  0  0  0  0  0  0  0
   61.7334   83.3172   31.9639 H   0  0  0  0  0  0  0  0  0  0  0  0
   60.1879   84.2326   31.9639 H   0  0  0  0  0  0  0  0  0  0  0  0
   57.9034   79.5013   31.6628 H   0  0  0  0  0  0  0  0  0  0  0  0
   54.8422   81.7321   26.6904 H   0  0  0  0  0  0  0  0  0  0  0  0
   55.5972   80.7307   25.3440 H   0  0  0  0  0  0  0  0  0  0  0  0
  1  2  1  0
  2  3  1  0
  3  4  2  0
  3  5  1  0
  5  6  1  0
  6  7  1  0
  7  8  1  0
  8  9  2  0
  9 10  1  0
 10 11  2  0
 11 12  1  0
 12 13  1  0
 13 14  1  0
 14 15  2  0
 15 16  1  0
 16 17  1  0
 16 18  2  0
 18 19  1  0
 18 20  1  0
 11 21  1  0
 21 22  2  0
 22 23  1  0
 23  5  1  0
 22  8  1  0
 20 13  2  0
  1 24  1  0
  1 25  1  0
  1 26  1  0
  2 27  1  0
  2 28  1  0
  6 29  1  0
  6 30  1  0
  7 31  1  0
  7 32  1  0
  9 33  1  0
 12 34  1  0
 14 35  1  0
 15 36  1  0
 17 37  1  0
 17 38  1  0
 17 39  1  0
 20 40  1  0
 23 41  1  0
 23 42  1  0
M  END
>  <meeko>  (1) 
{"is_sidechain": false}

>  <smiles>  (1) 
CCC(=O)N1CCc2cnc(Nc3ccc(C)c(Cl)c3)nc2C1

>  <vina_score>  (1) 
-8.316

>  <job_id>  (1) 
2fde788d5ecae667

$$$$
