
     RDKit          3D

 40 41  0  0  0  0  0  0  0  0999 V2000
   61.2910   82.3650   30.7900 C   0  0  0  0  0  0  0  0  0  0  0  0
   59.9350   82.0910   30.1840 C   0  0  0  0  0  0  0  0  0  0  0  0
   59.1820   83.0130   29.8950 O   0  0  0  0  0  0  0  0  0  0  0  0
   59.7120   80.7390   29.9950 N   0  0  0  0  0  0  0  0  0  0  0  0
   58.5650   80.1270   29.4490 C   0  0  0  0  0  0  0  0  0  0  0  0
   58.1860   80.2300   28.1130 C   0  0  0  0  0  0  0  0  0  0  0  0
   57.0300   79.5900   27.6480 C   0  0  0  0  0  0  0  0  0  0  0  0
   56.2290   78.8320   28.5120 C   0  0  0  0  0  0  0  0  0  0  0  0
   54.9750   78.1440   27.9850 C   0  0  1  0  0  0  0  0  0  0  0  0
   54.1130   77.6280   29.1460 C   0  0  0  0  0  0  0  0  0  0  0  0
   54.2340   79.0030   26.9610 C   0  0  0  0  0  0  0  0  0  0  0  0
   53.6890   80.2610   27.2700 C   0  0  0  0  0  0  0  0  0  0  0  0
   53.0310   81.0150   26.2950 C   0  0  0  0  0  0  0  0  0  0  0  0
   52.9220   80.5180   24.9970 C   0  0  0  0  0  0  0  0  0  0  0  0
   52.0930   81.4650   23.7490 S   0  0  0  0  0  0  0  0  0  0  0  0
   52.9330   81.0040   22.3640 N   0  0  0  0  0  0  0  0  0  0  0  0
   52.4100   82.8620   23.9430 O   0  0  0  0  0  0  0  0  0  0  0  0
   50.7390   80.9820   23.6330 O   0  0  0  0  0  0  0  0  0  0  0  0
   53.4480   79.2700   24.6650 C   0  0  0  0  0  0  0  0  0  0  0  0
   54.1060   78.5220   25.6430 C   0  0  0  0  0  0  0  0  0  0  0  0
   56.6130   78.7320   29.8560 C   0  0  0  0  0  0  0  0  0  0  0  0
   57.7680   79.3720   30.3170 C   0  0  0  0  0  0  0  0  0  0  0  0
   61.2123   82.3491   31.8871 H   0  0  0  0  0  0  0  0  0  0  0  0
   62.0020   81.5924   30.4622 H   0  0  0  0  0  0  0  0  0  0  0  0
   61.6463   83.3531   30.4622 H   0  0  0  0  0  0  0  0  0  0  0  0
   60.4570   80.1130   30.2710 H   0  0  0  0  0  0  0  0  0  0  0  0
   58.8001   80.8195   27.4163 H   0  0  0  0  0  0  0  0  0  0  0  0
   56.7471   79.6839   26.5892 H   0  0  0  0  0  0  0  0  0  0  0  0
   55.2700   77.2505   27.4153 H   0  0  0  0  0  0  0  0  0  0  0  0
   54.5800   77.9076   30.1019 H   0  0  0  0  0  0  0  0  0  0  0  0
   53.1094   78.0740   29.0840 H   0  0  0  0  0  0  0  0  0  0  0  0
   54.0320   76.5327   29.0840 H   0  0  0  0  0  0  0  0  0  0  0  0
   53.7816   80.6569   28.2921 H   0  0  0  0  0  0  0  0  0  0  0  0
   52.6015   81.9950   26.5500 H   0  0  0  0  0  0  0  0  0  0  0  0
   52.6860   80.0700   22.0370 H   0  0  0  0  0  0  0  0  0  0  0  0
   53.9350   81.0920   22.5430 H   0  0  0  0  0  0  0  0  0  0  0  0
   53.3454   78.8786   23.6421 H   0  0  0  0  0  0  0  0  0  0  0  0
   54.5311   77.5420   25.3805 H   0  0  0  0  0  0  0  0  0  0  0  0
   56.0000   78.1444   30.5553 H   0  0  0  0  0  0  0  0  0  0  0  0
   58.0536   79.2808   31.3753 H   0  0  0  0  0  0  0  0  0  0  0  0
  1  2  1  0
  2  3  2  0
  2  4  1  0
  4  5  1  0
  5  6  1  0
  6  7  2  0
  7  8  1  0
  8  9  1  0
  9 10  1  0
  9 11  1  0
 11 12  1  0
 12 13  2  0
 13 14  1  0
 14 15  1  0
 15 16  1  0
 15 17  2  0
 15 18  2  0
 14 19  2  0
 19 20  1  0
  8 21  2  0
 21 22  1  0
 22  5  2  0
 20 11  2  0
  1 23  1  0
  1 24  1  0
  1 25  1  0
  4 26  1  0
  6 27  1  0
  7 28  1  0
  9 29  1  6
 10 30  1  0
 10 31  1  0
 10 32  1  0
 12 33  1  0
 13 34  1  0
 16 35  1  0
 16 36  1  0
 19 37  1  0
 20 38  1  0
 21 39  1  0
 22 40  1  0
M  END
>  <meeko>  (1) 
{"is_sidechain": false}

>  <smiles>  (1) 
CC(=O)Nc1ccc([C@@H](C)c2ccc(S(N)(=O)=O)cc2)cc1

>  <vina_score>  (1) 
-8.324

>  <job_id>  (1) 
2ffd8661c230d4cf

$$$$
