
     RDKit          3D

 57 61  0  0  0  0  0  0  0  0999 V2000
   66.7190   84.0380   30.5010 C   0  0  0  0  0  0  0  0  0  0  0  0
   66.0530   83.3730   31.5750 O   0  0  0  0  0  0  0  0  0  0  0  0
   65.1740   82.4200   31.1740 C   0  0  0  0  0  0  0  0  0  0  0  0
   65.4660   81.3570   30.6500 O   0  0  0  0  0  0  0  0  0  0  0  0
   63.7740   82.8440   31.4530 C   0  0  0  0  0  0  0  0  0  0  0  0
   63.5440   83.6650   32.5600 C   0  0  0  0  0  0  0  0  0  0  0  0
   62.2590   84.1120   32.8750 C   0  0  0  0  0  0  0  0  0  0  0  0
   61.2060   83.7000   32.0520 C   0  0  0  0  0  0  0  0  0  0  0  0
   59.8680   84.0090   32.1180 N   0  0  0  0  0  0  0  0  0  0  0  0
   59.1930   83.4130   31.0950 C   0  0  0  0  0  0  0  0  0  0  0  0
   57.8900   83.6270   30.9550 O   0  0  0  0  0  0  0  0  0  0  0  0
   60.0840   82.6450   30.3640 C   0  0  0  0  0  0  0  0  0  0  0  0
   59.6570   81.8480   29.2190 C   0  0  0  0  0  0  0  0  0  0  0  0
   60.0600   82.0930   28.0820 O   0  0  0  0  0  0  0  0  0  0  0  0
   58.6900   80.7460   29.4050 C   0  0  0  0  0  0  0  0  0  0  0  0
   58.7860   79.8940   30.5100 C   0  0  0  0  0  0  0  0  0  0  0  0
   57.8730   78.8500   30.6880 C   0  0  0  0  0  0  0  0  0  0  0  0
   56.8580   78.7050   29.7330 C   0  0  0  0  0  0  0  0  0  0  0  0
   55.8450   77.7740   29.6540 N   0  0  0  0  0  0  0  0  0  0  0  0
   55.0750   77.9940   28.5450 C   0  0  0  0  0  0  0  0  0  0  0  0
   54.0540   77.1920   28.2730 O   0  0  0  0  0  0  0  0  0  0  0  0
   55.5830   79.1050   27.9110 C   0  0  0  0  0  0  0  0  0  0  0  0
   55.0600   79.6180   26.7190 N   0  0  0  0  0  0  0  0  0  0  0  0
   53.8510   79.9200   26.8140 N   0  0  0  0  0  0  0  0  0  0  0  0
   53.3750   80.4320   25.5950 C   0  0  0  0  0  0  0  0  0  0  0  0
   53.1070   79.5520   24.5390 C   0  0  0  0  0  0  0  0  0  0  0  0
   52.6090   80.0290   23.3230 C   0  0  0  0  0  0  0  0  0  0  0  0
   52.3760   81.3970   23.1640 C   0  0  0  0  0  0  0  0  0  0  0  0
   51.7150   82.0020   21.6390 S   0  0  0  0  0  0  0  0  0  0  0  0
   50.1650   81.3590   21.6550 N   0  0  0  0  0  0  0  0  0  0  0  0
   51.5520   83.4340   21.7260 O   0  0  0  0  0  0  0  0  0  0  0  0
   52.3990   81.3640   20.5380 O   0  0  0  0  0  0  0  0  0  0  0  0
   52.6120   82.2860   24.2160 C   0  0  0  0  0  0  0  0  0  0  0  0
   53.1110   81.7990   25.4270 C   0  0  0  0  0  0  0  0  0  0  0  0
   56.7200   79.5620   28.6350 C   0  0  0  0  0  0  0  0  0  0  0  0
   57.6520   80.6080   28.4730 C   0  0  0  0  0  0  0  0  0  0  0  0
   61.3820   82.8610   30.9460 C   0  0  0  0  0  0  0  0  0  0  0  0
   62.6980   82.4440   30.6390 C   0  0  0  0  0  0  0  0  0  0  0  0
   67.4420   84.7599   30.9087 H   0  0  0  0  0  0  0  0  0  0  0  0
   67.2486   83.2976   29.8835 H   0  0  0  0  0  0  0  0  0  0  0  0
   65.9794   84.5688   29.8835 H   0  0  0  0  0  0  0  0  0  0  0  0
   64.3907   83.9648   33.1951 H   0  0  0  0  0  0  0  0  0  0  0  0
   62.0811   84.7661   33.7413 H   0  0  0  0  0  0  0  0  0  0  0  0
   59.4380   84.6160   32.8010 H   0  0  0  0  0  0  0  0  0  0  0  0
   57.4380   82.8360   31.3250 H   0  0  0  0  0  0  0  0  0  0  0  0
   59.5883   80.0468   31.2469 H   0  0  0  0  0  0  0  0  0  0  0  0
   57.9489   78.1670   31.5470 H   0  0  0  0  0  0  0  0  0  0  0  0
   55.6870   77.0230   30.3100 H   0  0  0  0  0  0  0  0  0  0  0  0
   53.5040   77.1670   29.0790 H   0  0  0  0  0  0  0  0  0  0  0  0
   53.2901   78.4750   24.6677 H   0  0  0  0  0  0  0  0  0  0  0  0
   52.4021   79.3321   22.4974 H   0  0  0  0  0  0  0  0  0  0  0  0
   49.5100   82.0440   22.0320 H   0  0  0  0  0  0  0  0  0  0  0  0
   49.9190   81.0270   20.7220 H   0  0  0  0  0  0  0  0  0  0  0  0
   52.4068   83.3596   24.0919 H   0  0  0  0  0  0  0  0  0  0  0  0
   53.2988   82.4954   26.2575 H   0  0  0  0  0  0  0  0  0  0  0  0
   57.5656   81.3058   27.6271 H   0  0  0  0  0  0  0  0  0  0  0  0
   62.8809   81.8056   29.7621 H   0  0  0  0  0  0  0  0  0  0  0  0
  1  2  1  0
  2  3  1  0
  3  4  2  0
  3  5  1  0
  5  6  2  0
  6  7  1  0
  7  8  2  0
  8  9  1  0
  9 10  1  0
 10 11  1  0
 10 12  2  0
 12 13  1  0
 13 14  2  0
 13 15  1  0
 15 16  2  0
 16 17  1  0
 17 18  2  0
 18 19  1  0
 19 20  1  0
 20 21  1  0
 20 22  2  0
 22 23  1  0
 23 24  2  3
 24 25  1  0
 25 26  1  0
 26 27  2  0
 27 28  1  0
 28 29  1  0
 29 30  1  0
 29 31  2  0
 29 32  2  0
 28 33  2  0
 33 34  1  0
 22 35  1  0
 35 36  2  0
 12 37  1  0
 37 38  2  0
 38  5  1  0
 37  8  1  0
 36 15  1  0
 35 18  1  0
 34 25  2  0
  1 39  1  0
  1 40  1  0
  1 41  1  0
  6 42  1  0
  7 43  1  0
  9 44  1  0
 11 45  1  0
 16 46  1  0
 17 47  1  0
 19 48  1  0
 21 49  1  0
 26 50  1  0
 27 51  1  0
 30 52  1  0
 30 53  1  0
 33 54  1  0
 34 55  1  0
 36 56  1  0
 38 57  1  0
M  END
>  <meeko>  (1) 
{"is_sidechain": false}

>  <smiles>  (1) 
COC(=O)c1ccc2[nH]c(O)c(C(=O)c3ccc4[nH]c(O)c(N=Nc5ccc(S(N)(=O)=O)cc5)c4c3)c2c1

>  <vina_score>  (1) 
-8.310

>  <job_id>  (1) 
30303952a3f73555

$$$$
