
     RDKit          3D

 50 52  0  0  0  0  0  0  0  0999 V2000
   54.6180   83.2270   26.8950 C   0  0  0  0  0  0  0  0  0  0  0  0
   53.3100   82.5540   27.2700 C   0  0  0  0  0  0  0  0  0  0  0  0
   53.5320   81.1440   27.2820 O   0  0  0  0  0  0  0  0  0  0  0  0
   53.4410   80.4670   26.0920 C   0  0  0  0  0  0  0  0  0  0  0  0
   52.9570   81.0340   24.9070 C   0  0  0  0  0  0  0  0  0  0  0  0
   52.8590   80.2590   23.7560 C   0  0  0  0  0  0  0  0  0  0  0  0
   52.3930   80.8140   22.6300 F   0  0  0  0  0  0  0  0  0  0  0  0
   53.2250   78.9240   23.7560 C   0  0  0  0  0  0  0  0  0  0  0  0
   53.7080   78.3500   24.9310 C   0  0  0  0  0  0  0  0  0  0  0  0
   53.8360   79.1070   26.1150 C   0  0  0  0  0  0  0  0  0  0  0  0
   54.3620   78.4560   27.3280 C   0  0  0  0  0  0  0  0  0  0  0  0
   55.6540   78.7570   27.6300 N   0  0  0  0  0  0  0  0  0  0  0  0
   56.1980   78.1930   28.7230 C   0  0  0  0  0  0  0  0  0  0  0  0
   57.5250   78.5370   28.9580 N   0  0  0  0  0  0  0  0  0  0  0  0
   58.1540   79.6510   29.5260 C   0  0  0  0  0  0  0  0  0  0  0  0
   58.9410   80.5530   28.8100 C   0  0  0  0  0  0  0  0  0  0  0  0
   59.5500   81.6250   29.4550 C   0  0  0  0  0  0  0  0  0  0  0  0
   60.2970   82.4820   28.7460 F   0  0  0  0  0  0  0  0  0  0  0  0
   59.3990   81.8300   30.8210 C   0  0  0  0  0  0  0  0  0  0  0  0
   58.6200   80.9450   31.5720 C   0  0  0  0  0  0  0  0  0  0  0  0
   58.4560   81.1460   33.0560 C   0  0  0  0  0  0  0  0  0  0  0  0
   60.0490   81.1620   33.8980 S   0  0  0  0  0  0  0  0  0  0  0  0
   59.6850   80.5820   35.5480 C   0  0  0  0  0  0  0  0  0  0  0  0
   60.9020   80.1700   33.2710 O   0  0  0  0  0  0  0  0  0  0  0  0
   60.4380   82.6490   34.0300 N   0  0  0  0  0  0  0  0  0  0  0  0
   61.8230   82.8990   34.3890 C   0  0  0  0  0  0  0  0  0  0  0  0
   62.9160   83.1060   34.7100 N   0  0  0  0  0  0  0  0  0  0  0  0
   58.0190   79.8570   30.9130 C   0  0  0  0  0  0  0  0  0  0  0  0
   55.5210   77.3700   29.5400 N   0  0  0  0  0  0  0  0  0  0  0  0
   54.2370   77.1070   29.2260 C   0  0  0  0  0  0  0  0  0  0  0  0
   53.6030   77.6280   28.1290 C   0  0  0  0  0  0  0  0  0  0  0  0
   52.3120   77.3610   27.8930 F   0  0  0  0  0  0  0  0  0  0  0  0
   55.1617   83.5068   27.8094 H   0  0  0  0  0  0  0  0  0  0  0  0
   55.2309   82.5323   26.3019 H   0  0  0  0  0  0  0  0  0  0  0  0
   54.4091   84.1296   26.3019 H   0  0  0  0  0  0  0  0  0  0  0  0
   52.9884   82.8906   28.2666 H   0  0  0  0  0  0  0  0  0  0  0  0
   52.5235   82.8128   26.5458 H   0  0  0  0  0  0  0  0  0  0  0  0
   52.6545   82.0914   24.8861 H   0  0  0  0  0  0  0  0  0  0  0  0
   53.1357   78.3228   22.8391 H   0  0  0  0  0  0  0  0  0  0  0  0
   53.9945   77.2880   24.9353 H   0  0  0  0  0  0  0  0  0  0  0  0
   58.1090   77.7410   28.7420 H   0  0  0  0  0  0  0  0  0  0  0  0
   59.0812   80.4159   27.7276 H   0  0  0  0  0  0  0  0  0  0  0  0
   59.8902   82.6847   31.3091 H   0  0  0  0  0  0  0  0  0  0  0  0
   57.9480   82.1055   33.2331 H   0  0  0  0  0  0  0  0  0  0  0  0
   57.8623   80.3102   33.4548 H   0  0  0  0  0  0  0  0  0  0  0  0
   60.1195   81.2743   36.2842 H   0  0  0  0  0  0  0  0  0  0  0  0
   58.5950   80.5347   35.6879 H   0  0  0  0  0  0  0  0  0  0  0  0
   60.1164   79.5799   35.6879 H   0  0  0  0  0  0  0  0  0  0  0  0
   57.4235   79.1429   31.5007 H   0  0  0  0  0  0  0  0  0  0  0  0
   53.6669   76.4374   29.8867 H   0  0  0  0  0  0  0  0  0  0  0  0
  1  2  1  0
  2  3  1  0
  3  4  1  0
  4  5  1  0
  5  6  2  0
  6  7  1  0
  6  8  1  0
  8  9  2  0
  9 10  1  0
 10 11  1  0
 11 12  2  0
 12 13  1  0
 13 14  1  0
 14 15  1  0
 15 16  1  0
 16 17  2  0
 17 18  1  0
 17 19  1  0
 19 20  2  0
 20 21  1  0
 21 22  1  0
 22 23  1  0
 22 24  2  0
 22 25  2  0
 25 26  1  0
 26 27  3  0
 20 28  1  0
 13 29  2  0
 29 30  1  0
 30 31  2  0
 31 32  1  0
 10  4  2  0
 31 11  1  0
 28 15  2  0
  1 33  1  0
  1 34  1  0
  1 35  1  0
  2 36  1  0
  2 37  1  0
  5 38  1  0
  8 39  1  0
  9 40  1  0
 14 41  1  0
 16 42  1  0
 19 43  1  0
 21 44  1  0
 21 45  1  0
 23 46  1  0
 23 47  1  0
 23 48  1  0
 28 49  1  0
 30 50  1  0
M  END
>  <meeko>  (1) 
{"is_sidechain": false}

>  <smiles>  (1) 
CCOc1cc(F)ccc1-c1nc(Nc2cc(F)cc(CS(C)(=O)=NC#N)c2)ncc1F

>  <vina_score>  (1) 
-9.004

>  <job_id>  (1) 
30448e6826091544

$$$$
