
     RDKit          3D

 41 43  0  0  0  0  0  0  0  0999 V2000
   51.0610   81.3430   20.8260 C   0  0  0  0  0  0  0  0  0  0  0  0
   51.4330   80.6690   22.0440 N   0  0  0  0  0  0  0  0  0  0  0  0
   52.2100   81.3120   22.9870 C   0  0  0  0  0  0  0  0  0  0  0  0
   52.5650   82.4820   22.8890 O   0  0  0  0  0  0  0  0  0  0  0  0
   52.6530   80.4900   24.1480 C   0  0  0  0  0  0  0  0  0  0  0  0
   52.4990   80.9270   25.4690 C   0  0  0  0  0  0  0  0  0  0  0  0
   52.9280   80.1210   26.5280 C   0  0  0  0  0  0  0  0  0  0  0  0
   53.5180   78.8720   26.2820 C   0  0  0  0  0  0  0  0  0  0  0  0
   53.9800   78.0010   27.4290 C   0  0  0  0  0  0  0  0  0  0  0  0
   55.2570   78.4770   28.0830 C   0  0  0  0  0  0  0  0  0  0  0  0
   56.0770   79.4170   27.4510 C   0  0  0  0  0  0  0  0  0  0  0  0
   57.2610   79.8540   28.0580 C   0  0  0  0  0  0  0  0  0  0  0  0
   57.6430   79.3820   29.3170 C   0  0  0  0  0  0  0  0  0  0  0  0
   58.8580   79.7480   29.9380 N   0  0  0  0  0  0  0  0  0  0  0  0
   58.9520   79.9140   31.3890 C   0  0  0  0  0  0  0  0  0  0  0  0
   58.1860   80.9920   32.0990 C   0  0  0  0  0  0  0  0  0  0  0  0
   59.6750   81.1030   31.9570 C   0  0  0  0  0  0  0  0  0  0  0  0
   56.8360   78.4130   29.9290 C   0  0  0  0  0  0  0  0  0  0  0  0
   55.6530   77.9720   29.3280 C   0  0  0  0  0  0  0  0  0  0  0  0
   53.6840   78.4490   24.9560 C   0  0  0  0  0  0  0  0  0  0  0  0
   53.2580   79.2540   23.8960 C   0  0  0  0  0  0  0  0  0  0  0  0
   50.5427   82.2820   21.0702 H   0  0  0  0  0  0  0  0  0  0  0  0
   51.9645   81.5648   20.2390 H   0  0  0  0  0  0  0  0  0  0  0  0
   50.3918   80.6968   20.2390 H   0  0  0  0  0  0  0  0  0  0  0  0
   51.4080   79.6600   22.0500 H   0  0  0  0  0  0  0  0  0  0  0  0
   52.0401   81.9054   25.6741 H   0  0  0  0  0  0  0  0  0  0  0  0
   52.8017   80.4694   27.5637 H   0  0  0  0  0  0  0  0  0  0  0  0
   53.1868   77.9819   28.1909 H   0  0  0  0  0  0  0  0  0  0  0  0
   54.1873   77.0050   27.0106 H   0  0  0  0  0  0  0  0  0  0  0  0
   55.7893   79.8171   26.4676 H   0  0  0  0  0  0  0  0  0  0  0  0
   57.9007   80.5805   27.5355 H   0  0  0  0  0  0  0  0  0  0  0  0
   59.6550   79.3060   29.4870 H   0  0  0  0  0  0  0  0  0  0  0  0
   59.0252   78.8220   31.4989 H   0  0  0  0  0  0  0  0  0  0  0  0
   57.5278   81.6647   31.5296 H   0  0  0  0  0  0  0  0  0  0  0  0
   57.4818   81.0174   32.9437 H   0  0  0  0  0  0  0  0  0  0  0  0
   60.1086   81.8566   31.2831 H   0  0  0  0  0  0  0  0  0  0  0  0
   60.5146   81.2430   32.6537 H   0  0  0  0  0  0  0  0  0  0  0  0
   57.1387   77.9921   30.8992 H   0  0  0  0  0  0  0  0  0  0  0  0
   55.0286   77.2228   29.8368 H   0  0  0  0  0  0  0  0  0  0  0  0
   54.1531   77.4760   24.7481 H   0  0  0  0  0  0  0  0  0  0  0  0
   53.3990   78.9144   22.8593 H   0  0  0  0  0  0  0  0  0  0  0  0
  1  2  1  0
  2  3  1  0
  3  4  2  0
  3  5  1  0
  5  6  1  0
  6  7  2  0
  7  8  1  0
  8  9  1  0
  9 10  1  0
 10 11  1  0
 11 12  2  0
 12 13  1  0
 13 14  1  0
 14 15  1  0
 15 16  1  0
 16 17  1  0
 13 18  2  0
 18 19  1  0
  8 20  2  0
 20 21  1  0
 21  5  2  0
 19 10  2  0
 17 15  1  0
  1 22  1  0
  1 23  1  0
  1 24  1  0
  2 25  1  0
  6 26  1  0
  7 27  1  0
  9 28  1  0
  9 29  1  0
 11 30  1  0
 12 31  1  0
 14 32  1  0
 15 33  1  0
 16 34  1  0
 16 35  1  0
 17 36  1  0
 17 37  1  0
 18 38  1  0
 19 39  1  0
 20 40  1  0
 21 41  1  0
M  END
>  <meeko>  (1) 
{"is_sidechain": false}

>  <smiles>  (1) 
CNC(=O)c1ccc(Cc2ccc(NC3CC3)cc2)cc1

>  <vina_score>  (1) 
-8.199

>  <job_id>  (1) 
30b5a3928c59f070

$$$$
