
     RDKit          3D

 58 60  0  0  0  0  0  0  0  0999 V2000
   52.1730   74.9820   26.1590 C   0  0  0  0  0  0  0  0  0  0  0  0
   52.5610   76.1850   27.0080 C   0  0  0  0  0  0  0  0  0  0  0  0
   52.9450   77.3990   26.1640 C   0  0  0  0  0  0  0  0  0  0  0  0
   53.6470   78.5000   26.9490 C   0  0  0  0  0  0  0  0  0  0  0  0
   53.6730   78.5120   28.1740 O   0  0  0  0  0  0  0  0  0  0  0  0
   54.1970   79.4410   26.0990 N   0  0  0  0  0  0  0  0  0  0  0  0
   54.9140   80.5880   26.4950 C   0  0  0  0  0  0  0  0  0  0  0  0
   56.1270   80.4540   27.0530 N   0  0  0  0  0  0  0  0  0  0  0  0
   56.7980   81.5540   27.4240 C   0  0  0  0  0  0  0  0  0  0  0  0
   58.0400   81.3230   27.9910 N   0  0  0  0  0  0  0  0  0  0  0  0
   58.5680   81.3740   29.2890 C   0  0  0  0  0  0  0  0  0  0  0  0
   59.1170   82.5240   29.8530 C   0  0  0  0  0  0  0  0  0  0  0  0
   59.6320   82.5150   31.1590 C   0  0  0  0  0  0  0  0  0  0  0  0
   59.6290   81.3620   31.9530 C   0  0  0  0  0  0  0  0  0  0  0  0
   60.1330   81.3540   33.2480 N   0  0  0  0  0  0  0  0  0  0  0  0
   59.2640   80.9610   34.3760 C   0  0  0  0  0  0  0  0  0  0  0  0
   60.0560   80.3000   35.5200 C   0  0  0  0  0  0  0  0  0  0  0  0
   61.1860   81.1140   35.9720 N   0  0  0  0  0  0  0  0  0  0  0  0
   61.5370   81.1000   37.3100 C   0  0  0  0  0  0  0  0  0  0  0  0
   62.6700   82.0040   37.7280 C   0  0  0  0  0  0  0  0  0  0  0  0
   60.9720   80.3880   38.1390 O   0  0  0  0  0  0  0  0  0  0  0  0
   61.8660   81.9060   34.9420 C   0  0  0  0  0  0  0  0  0  0  0  0
   61.5790   81.4220   33.5080 C   0  0  0  0  0  0  0  0  0  0  0  0
   59.0660   80.2090   31.3780 C   0  0  0  0  0  0  0  0  0  0  0  0
   58.5460   80.2030   30.0740 C   0  0  0  0  0  0  0  0  0  0  0  0
   57.9830   79.1070   29.4590 O   0  0  0  0  0  0  0  0  0  0  0  0
   56.7000   78.6920   29.9070 C   0  0  0  0  0  0  0  0  0  0  0  0
   56.3100   82.7920   27.2600 N   0  0  0  0  0  0  0  0  0  0  0  0
   55.0920   82.9060   26.6960 C   0  0  0  0  0  0  0  0  0  0  0  0
   54.3410   81.8300   26.2900 C   0  0  0  0  0  0  0  0  0  0  0  0
   52.6430   82.0920   25.5090 Br  0  0  0  0  0  0  0  0  0  0  0  0
   51.9021   74.1420   26.8155 H   0  0  0  0  0  0  0  0  0  0  0  0
   51.3135   75.2432   25.5241 H   0  0  0  0  0  0  0  0  0  0  0  0
   53.0231   74.6918   25.5241 H   0  0  0  0  0  0  0  0  0  0  0  0
   51.7074   76.4556   27.6469 H   0  0  0  0  0  0  0  0  0  0  0  0
   53.4404   75.9022   27.6052 H   0  0  0  0  0  0  0  0  0  0  0  0
   53.6176   77.0636   25.3609 H   0  0  0  0  0  0  0  0  0  0  0  0
   52.0086   77.8290   25.7789 H   0  0  0  0  0  0  0  0  0  0  0  0
   54.0830   79.3110   25.1030 H   0  0  0  0  0  0  0  0  0  0  0  0
   58.7110   81.0530   27.2790 H   0  0  0  0  0  0  0  0  0  0  0  0
   59.1473   83.4535   29.2656 H   0  0  0  0  0  0  0  0  0  0  0  0
   60.0516   83.4442   31.5719 H   0  0  0  0  0  0  0  0  0  0  0  0
   58.7621   81.8589   34.7657 H   0  0  0  0  0  0  0  0  0  0  0  0
   58.5368   80.2258   34.0009 H   0  0  0  0  0  0  0  0  0  0  0  0
   59.3769   80.1385   36.3701 H   0  0  0  0  0  0  0  0  0  0  0  0
   60.4627   79.3524   35.1369 H   0  0  0  0  0  0  0  0  0  0  0  0
   62.7208   82.0445   38.8261 H   0  0  0  0  0  0  0  0  0  0  0  0
   63.6179   81.6113   37.3314 H   0  0  0  0  0  0  0  0  0  0  0  0
   62.4975   83.0154   37.3314 H   0  0  0  0  0  0  0  0  0  0  0  0
   61.5340   82.9510   35.0301 H   0  0  0  0  0  0  0  0  0  0  0  0
   62.9475   81.7972   35.1106 H   0  0  0  0  0  0  0  0  0  0  0  0
   62.0391   82.1215   32.7946 H   0  0  0  0  0  0  0  0  0  0  0  0
   62.0015   80.4132   33.3902 H   0  0  0  0  0  0  0  0  0  0  0  0
   59.0319   79.2818   31.9689 H   0  0  0  0  0  0  0  0  0  0  0  0
   56.6800   78.6855   31.0068 H   0  0  0  0  0  0  0  0  0  0  0  0
   55.9370   79.3891   29.5305 H   0  0  0  0  0  0  0  0  0  0  0  0
   56.4898   77.6800   29.5305 H   0  0  0  0  0  0  0  0  0  0  0  0
   54.6767   83.9145   26.5530 H   0  0  0  0  0  0  0  0  0  0  0  0
  1  2  1  0
  2  3  1  0
  3  4  1  0
  4  5  2  0
  4  6  1  0
  6  7  1  0
  7  8  2  0
  8  9  1  0
  9 10  1  0
 10 11  1  0
 11 12  1  0
 12 13  2  0
 13 14  1  0
 14 15  1  0
 15 16  1  0
 16 17  1  0
 17 18  1  0
 18 19  1  0
 19 20  1  0
 19 21  2  0
 18 22  1  0
 22 23  1  0
 14 24  2  0
 24 25  1  0
 25 26  1  0
 26 27  1  0
  9 28  2  0
 28 29  1  0
 29 30  2  0
 30 31  1  0
 30  7  1  0
 25 11  2  0
 23 15  1  0
  1 32  1  0
  1 33  1  0
  1 34  1  0
  2 35  1  0
  2 36  1  0
  3 37  1  0
  3 38  1  0
  6 39  1  0
 10 40  1  0
 12 41  1  0
 13 42  1  0
 16 43  1  0
 16 44  1  0
 17 45  1  0
 17 46  1  0
 20 47  1  0
 20 48  1  0
 20 49  1  0
 22 50  1  0
 22 51  1  0
 23 52  1  0
 23 53  1  0
 24 54  1  0
 27 55  1  0
 27 56  1  0
 27 57  1  0
 29 58  1  0
M  END
>  <meeko>  (1) 
{"is_sidechain": false}

>  <smiles>  (1) 
CCCC(=O)Nc1nc(Nc2ccc(N3CCN(C(C)=O)CC3)cc2OC)ncc1Br

>  <vina_score>  (1) 
-7.571

>  <job_id>  (1) 
30b8f99e235943a4

$$$$
