
     RDKit          3D

 37 38  0  0  0  0  0  0  0  0999 V2000
   64.2400   81.7590   31.0200 C   0  0  0  0  0  0  0  0  0  0  0  0
   63.1370   82.7570   30.7130 C   0  0  0  0  0  0  0  0  0  0  0  0
   61.9260   82.0990   30.2700 N   0  0  0  0  0  0  0  0  0  0  0  0
   60.8620   81.9010   31.1280 C   0  0  0  0  0  0  0  0  0  0  0  0
   60.8430   82.2980   32.2860 O   0  0  0  0  0  0  0  0  0  0  0  0
   59.7120   81.1250   30.5850 C   0  0  0  0  0  0  0  0  0  0  0  0
   58.8050   80.5610   31.4880 C   0  0  0  0  0  0  0  0  0  0  0  0
   57.7110   79.8240   31.0210 C   0  0  0  0  0  0  0  0  0  0  0  0
   57.4940   79.6430   29.6460 C   0  0  0  0  0  0  0  0  0  0  0  0
   56.3430   78.8680   29.1550 C   0  0  0  0  0  0  0  0  0  0  0  0
   55.9350   77.6890   29.8040 C   0  0  0  0  0  0  0  0  0  0  0  0
   54.8430   76.9490   29.3390 C   0  0  0  0  0  0  0  0  0  0  0  0
   54.1390   77.3930   28.2190 C   0  0  0  0  0  0  0  0  0  0  0  0
   52.7770   76.4440   27.6080 S   0  0  0  0  0  0  0  0  0  0  0  0
   53.2300   74.8810   28.0200 N   0  0  0  0  0  0  0  0  0  0  0  0
   51.6020   76.7370   28.3950 O   0  0  0  0  0  0  0  0  0  0  0  0
   52.7750   76.4890   26.1650 O   0  0  0  0  0  0  0  0  0  0  0  0
   54.5300   78.5520   27.5490 C   0  0  0  0  0  0  0  0  0  0  0  0
   55.6240   79.2840   28.0200 C   0  0  0  0  0  0  0  0  0  0  0  0
   58.4040   80.2310   28.7500 C   0  0  0  0  0  0  0  0  0  0  0  0
   59.5010   80.9680   29.2110 C   0  0  0  0  0  0  0  0  0  0  0  0
   64.3508   81.6587   32.1098 H   0  0  0  0  0  0  0  0  0  0  0  0
   63.9814   80.7818   30.5863 H   0  0  0  0  0  0  0  0  0  0  0  0
   65.1866   82.1137   30.5863 H   0  0  0  0  0  0  0  0  0  0  0  0
   62.9162   83.3349   31.6226 H   0  0  0  0  0  0  0  0  0  0  0  0
   63.4857   83.4141   29.9027 H   0  0  0  0  0  0  0  0  0  0  0  0
   61.9690   81.5680   29.4120 H   0  0  0  0  0  0  0  0  0  0  0  0
   58.9522   80.6973   32.5695 H   0  0  0  0  0  0  0  0  0  0  0  0
   57.0100   79.3795   31.7428 H   0  0  0  0  0  0  0  0  0  0  0  0
   56.4839   77.3430   30.6923 H   0  0  0  0  0  0  0  0  0  0  0  0
   54.5414   76.0240   29.8523 H   0  0  0  0  0  0  0  0  0  0  0  0
   54.0960   74.6360   27.5390 H   0  0  0  0  0  0  0  0  0  0  0  0
   52.4600   74.2390   27.8330 H   0  0  0  0  0  0  0  0  0  0  0  0
   53.9816   78.8877   26.6565 H   0  0  0  0  0  0  0  0  0  0  0  0
   55.9277   80.2010   27.4939 H   0  0  0  0  0  0  0  0  0  0  0  0
   58.2511   80.1097   27.6674 H   0  0  0  0  0  0  0  0  0  0  0  0
   60.1978   81.4241   28.4923 H   0  0  0  0  0  0  0  0  0  0  0  0
  1  2  1  0
  2  3  1  0
  3  4  1  0
  4  5  2  0
  4  6  1  0
  6  7  1  0
  7  8  2  0
  8  9  1  0
  9 10  1  0
 10 11  1  0
 11 12  2  0
 12 13  1  0
 13 14  1  0
 14 15  1  0
 14 16  2  0
 14 17  2  0
 13 18  2  0
 18 19  1  0
  9 20  2  0
 20 21  1  0
 21  6  2  0
 19 10  2  0
  1 22  1  0
  1 23  1  0
  1 24  1  0
  2 25  1  0
  2 26  1  0
  3 27  1  0
  7 28  1  0
  8 29  1  0
 11 30  1  0
 12 31  1  0
 15 32  1  0
 15 33  1  0
 18 34  1  0
 19 35  1  0
 20 36  1  0
 21 37  1  0
M  END
>  <meeko>  (1) 
{"is_sidechain": false}

>  <smiles>  (1) 
CCNC(=O)c1ccc(-c2ccc(S(N)(=O)=O)cc2)cc1

>  <vina_score>  (1) 
-7.599

>  <job_id>  (1) 
30c8ad8e54c7c130

$$$$
