
     RDKit          3D

 40 43  0  0  0  0  0  0  0  0999 V2000
   59.3080   83.4310   33.2890 N   0  0  0  0  0  0  0  0  0  0  0  0
   60.5180   83.1070   32.1610 S   0  0  0  0  0  0  0  0  0  0  0  0
   60.6940   84.2870   31.3480 O   0  0  0  0  0  0  0  0  0  0  0  0
   61.5990   82.5110   32.9130 O   0  0  0  0  0  0  0  0  0  0  0  0
   59.7520   81.8510   31.1750 C   0  0  0  0  0  0  0  0  0  0  0  0
   59.8770   81.8820   29.7870 C   0  0  0  0  0  0  0  0  0  0  0  0
   59.2690   80.8830   29.0170 C   0  0  0  0  0  0  0  0  0  0  0  0
   58.5230   79.8570   29.6100 C   0  0  0  0  0  0  0  0  0  0  0  0
   57.9130   78.8230   28.8940 N   0  0  0  0  0  0  0  0  0  0  0  0
   56.6040   78.3630   28.7790 C   0  0  0  0  0  0  0  0  0  0  0  0
   56.0830   77.4710   29.6350 N   0  0  0  0  0  0  0  0  0  0  0  0
   54.8100   77.0860   29.4340 C   0  0  0  0  0  0  0  0  0  0  0  0
   54.0270   77.5680   28.4200 C   0  0  0  0  0  0  0  0  0  0  0  0
   54.6350   78.4910   27.6040 C   0  0  0  0  0  0  0  0  0  0  0  0
   53.9610   79.0930   26.4690 C   0  0  0  0  0  0  0  0  0  0  0  0
   53.5930   78.5230   25.2630 C   0  0  0  0  0  0  0  0  0  0  0  0
   52.9380   79.4120   24.4530 N   0  0  0  0  0  0  0  0  0  0  0  0
   52.9320   80.5440   25.1230 C   0  0  0  0  0  0  0  0  0  0  0  0
   52.4080   81.8220   24.7840 C   0  0  0  0  0  0  0  0  0  0  0  0
   52.5600   82.8570   25.6320 C   0  0  0  0  0  0  0  0  0  0  0  0
   53.2580   82.7040   26.8970 C   0  0  0  0  0  0  0  0  0  0  0  0
   53.7450   81.4960   27.2310 C   0  0  0  0  0  0  0  0  0  0  0  0
   53.5720   80.4170   26.3580 N   0  0  0  0  0  0  0  0  0  0  0  0
   55.9130   78.8880   27.7570 N   0  0  0  0  0  0  0  0  0  0  0  0
   58.4090   79.8570   31.0120 C   0  0  0  0  0  0  0  0  0  0  0  0
   59.0110   80.8470   31.7940 C   0  0  0  0  0  0  0  0  0  0  0  0
   59.0780   82.5660   33.7800 H   0  0  0  0  0  0  0  0  0  0  0  0
   58.4820   83.8640   32.8760 H   0  0  0  0  0  0  0  0  0  0  0  0
   60.4492   82.6855   29.3001 H   0  0  0  0  0  0  0  0  0  0  0  0
   59.3797   80.9046   27.9228 H   0  0  0  0  0  0  0  0  0  0  0  0
   58.5200   78.1940   28.3880 H   0  0  0  0  0  0  0  0  0  0  0  0
   54.3753   76.3447   30.1207 H   0  0  0  0  0  0  0  0  0  0  0  0
   52.9877   77.2405   28.2696 H   0  0  0  0  0  0  0  0  0  0  0  0
   53.8020   77.4788   24.9874 H   0  0  0  0  0  0  0  0  0  0  0  0
   51.8791   81.9648   23.8301 H   0  0  0  0  0  0  0  0  0  0  0  0
   52.1467   83.8397   25.3610 H   0  0  0  0  0  0  0  0  0  0  0  0
   53.3861   83.5635   27.5714 H   0  0  0  0  0  0  0  0  0  0  0  0
   54.2759   81.3573   28.1844 H   0  0  0  0  0  0  0  0  0  0  0  0
   57.8329   79.0597   31.5043 H   0  0  0  0  0  0  0  0  0  0  0  0
   58.9006   80.8333   32.8884 H   0  0  0  0  0  0  0  0  0  0  0  0
  1  2  1  0
  2  3  2  0
  2  4  2  0
  2  5  1  0
  5  6  1  0
  6  7  2  0
  7  8  1  0
  8  9  1  0
  9 10  1  0
 10 11  2  0
 11 12  1  0
 12 13  2  0
 13 14  1  0
 14 15  1  0
 15 16  2  0
 16 17  1  0
 17 18  2  0
 18 19  1  0
 19 20  2  0
 20 21  1  0
 21 22  2  0
 22 23  1  0
 14 24  2  0
  8 25  2  0
 25 26  1  0
 26  5  2  0
 24 10  1  0
 23 15  1  0
 23 18  1  0
  1 27  1  0
  1 28  1  0
  6 29  1  0
  7 30  1  0
  9 31  1  0
 12 32  1  0
 13 33  1  0
 16 34  1  0
 19 35  1  0
 20 36  1  0
 21 37  1  0
 22 38  1  0
 25 39  1  0
 26 40  1  0
M  END
>  <meeko>  (1) 
{"is_sidechain": false}

>  <smiles>  (1) 
NS(=O)(=O)c1ccc(Nc2nccc(-c3cnc4ccccn34)n2)cc1

>  <vina_score>  (1) 
-9.075

>  <job_id>  (1) 
31570bbd09977f2e

$$$$
