
     RDKit          3D

 59 61  0  0  0  0  0  0  0  0999 V2000
   64.8280   81.7310   31.0200 C   0  0  0  0  0  0  0  0  0  0  0  0
   63.8470   82.6500   31.0250 C   0  0  0  0  0  0  0  0  0  0  0  0
   64.0120   83.9440   30.2700 C   0  0  0  0  0  0  0  0  0  0  0  0
   62.5230   82.4710   31.7610 C   0  0  0  0  0  0  0  0  0  0  0  0
   62.7070   82.2930   33.2770 C   0  0  0  0  0  0  0  0  0  0  0  0
   61.5500   83.6330   31.4950 C   0  0  0  0  0  0  0  0  0  0  0  0
   60.0960   83.2650   31.7270 C   0  0  0  0  0  0  0  0  0  0  0  0
   59.3880   83.9330   32.4810 O   0  0  0  0  0  0  0  0  0  0  0  0
   59.5070   82.0740   31.0420 C   0  0  0  0  0  0  0  0  0  0  0  0
   58.7980   81.0810   31.7200 C   0  0  0  0  0  0  0  0  0  0  0  0
   58.2680   79.9900   31.0180 C   0  0  0  0  0  0  0  0  0  0  0  0
   58.4380   79.8550   29.6300 C   0  0  0  0  0  0  0  0  0  0  0  0
   57.8390   78.7650   28.9900 N   0  0  0  0  0  0  0  0  0  0  0  0
   56.5180   78.4320   28.7050 C   0  0  0  0  0  0  0  0  0  0  0  0
   55.9430   77.5920   29.5860 N   0  0  0  0  0  0  0  0  0  0  0  0
   54.6630   77.2310   29.3500 C   0  0  0  0  0  0  0  0  0  0  0  0
   53.9370   77.6870   28.2840 C   0  0  0  0  0  0  0  0  0  0  0  0
   52.6700   77.2990   28.0910 F   0  0  0  0  0  0  0  0  0  0  0  0
   54.5910   78.5660   27.4520 C   0  0  0  0  0  0  0  0  0  0  0  0
   53.9660   79.1190   26.2620 C   0  0  0  0  0  0  0  0  0  0  0  0
   53.3260   78.4400   25.2430 C   0  0  0  0  0  0  0  0  0  0  0  0
   52.8860   79.2860   24.2700 N   0  0  0  0  0  0  0  0  0  0  0  0
   53.2350   80.4930   24.6630 C   0  0  0  0  0  0  0  0  0  0  0  0
   52.9830   81.7340   23.8850 C   0  0  0  0  0  0  0  0  0  0  0  0
   53.8630   80.4520   25.9020 N   0  0  0  0  0  0  0  0  0  0  0  0
   54.2540   81.6440   26.6560 C   0  0  0  0  0  0  0  0  0  0  0  0
   55.5010   82.3550   26.1250 C   0  0  0  0  0  0  0  0  0  0  0  0
   53.0930   82.6110   26.8710 C   0  0  0  0  0  0  0  0  0  0  0  0
   55.8730   78.9440   27.6460 N   0  0  0  0  0  0  0  0  0  0  0  0
   59.1350   80.8650   28.9640 C   0  0  0  0  0  0  0  0  0  0  0  0
   59.6660   81.9610   29.6570 C   0  0  0  0  0  0  0  0  0  0  0  0
   64.7016   80.7885   31.5730 H   0  0  0  0  0  0  0  0  0  0  0  0
   65.7572   81.9214   30.4629 H   0  0  0  0  0  0  0  0  0  0  0  0
   64.1179   84.7741   30.9839 H   0  0  0  0  0  0  0  0  0  0  0  0
   64.9102   83.8875   29.6375 H   0  0  0  0  0  0  0  0  0  0  0  0
   63.1284   84.1147   29.6375 H   0  0  0  0  0  0  0  0  0  0  0  0
   62.0882   81.5451   31.3564 H   0  0  0  0  0  0  0  0  0  0  0  0
   62.0159   82.9616   33.8112 H   0  0  0  0  0  0  0  0  0  0  0  0
   62.4939   81.2495   33.5522 H   0  0  0  0  0  0  0  0  0  0  0  0
   63.7428   82.5406   33.5522 H   0  0  0  0  0  0  0  0  0  0  0  0
   61.8102   84.4662   32.1645 H   0  0  0  0  0  0  0  0  0  0  0  0
   61.6513   83.9058   30.4342 H   0  0  0  0  0  0  0  0  0  0  0  0
   58.6549   81.1550   32.8081 H   0  0  0  0  0  0  0  0  0  0  0  0
   57.7052   79.2207   31.5671 H   0  0  0  0  0  0  0  0  0  0  0  0
   58.4500   78.1600   28.4590 H   0  0  0  0  0  0  0  0  0  0  0  0
   54.1796   76.5346   30.0509 H   0  0  0  0  0  0  0  0  0  0  0  0
   53.1884   77.3489   25.2201 H   0  0  0  0  0  0  0  0  0  0  0  0
   52.8128   82.5722   24.5767 H   0  0  0  0  0  0  0  0  0  0  0  0
   53.8550   81.9529   23.2512 H   0  0  0  0  0  0  0  0  0  0  0  0
   52.0947   81.5954   23.2512 H   0  0  0  0  0  0  0  0  0  0  0  0
   54.5456   81.2557   27.6430 H   0  0  0  0  0  0  0  0  0  0  0  0
   56.1123   82.7036   26.9705 H   0  0  0  0  0  0  0  0  0  0  0  0
   56.0883   81.6560   25.5115 H   0  0  0  0  0  0  0  0  0  0  0  0
   55.1986   83.2165   25.5115 H   0  0  0  0  0  0  0  0  0  0  0  0
   52.9263   82.7498   27.9494 H   0  0  0  0  0  0  0  0  0  0  0  0
   53.3327   83.5802   26.4093 H   0  0  0  0  0  0  0  0  0  0  0  0
   52.1831   82.2000   26.4093 H   0  0  0  0  0  0  0  0  0  0  0  0
   59.2699   80.7990   27.8743 H   0  0  0  0  0  0  0  0  0  0  0  0
   60.2133   82.7402   29.1063 H   0  0  0  0  0  0  0  0  0  0  0  0
  1  2  2  0
  2  3  1  0
  2  4  1  0
  4  5  1  0
  4  6  1  0
  6  7  1  0
  7  8  2  0
  7  9  1  0
  9 10  1  0
 10 11  2  0
 11 12  1  0
 12 13  1  0
 13 14  1  0
 14 15  2  0
 15 16  1  0
 16 17  2  0
 17 18  1  0
 17 19  1  0
 19 20  1  0
 20 21  2  0
 21 22  1  0
 22 23  2  0
 23 24  1  0
 23 25  1  0
 25 26  1  0
 26 27  1  0
 26 28  1  0
 19 29  2  0
 12 30  2  0
 30 31  1  0
 31  9  2  0
 29 14  1  0
 25 20  1  0
  1 32  1  0
  1 33  1  0
  3 34  1  0
  3 35  1  0
  3 36  1  0
  4 37  1  0
  5 38  1  0
  5 39  1  0
  5 40  1  0
  6 41  1  0
  6 42  1  0
 10 43  1  0
 11 44  1  0
 13 45  1  0
 16 46  1  0
 21 47  1  0
 24 48  1  0
 24 49  1  0
 24 50  1  0
 26 51  1  0
 27 52  1  0
 27 53  1  0
 27 54  1  0
 28 55  1  0
 28 56  1  0
 28 57  1  0
 30 58  1  0
 31 59  1  0
M  END
>  <meeko>  (1) 
{"is_sidechain": false}

>  <smiles>  (1) 
C=C(C)C(C)CC(=O)c1ccc(Nc2ncc(F)c(-c3cnc(C)n3C(C)C)n2)cc1

>  <vina_score>  (1) 
-8.892

>  <job_id>  (1) 
316750b057090763

$$$$
