
     RDKit          3D

 45 47  0  0  0  0  0  0  0  0999 V2000
   55.1100   76.5590   29.4450 C   0  0  0  0  0  0  0  0  0  0  0  0
   55.9270   77.7110   29.6090 O   0  0  0  0  0  0  0  0  0  0  0  0
   55.9200   78.6370   28.5880 C   0  0  0  0  0  0  0  0  0  0  0  0
   54.8910   78.7870   27.6440 C   0  0  0  0  0  0  0  0  0  0  0  0
   54.9380   79.7640   26.6350 C   0  0  0  0  0  0  0  0  0  0  0  0
   53.9170   79.9020   25.7070 N   0  0  0  0  0  0  0  0  0  0  0  0
   53.3350   81.2150   25.3840 C   0  0  0  0  0  0  0  0  0  0  0  0
   51.9160   81.0600   24.7850 C   0  0  0  0  0  0  0  0  0  0  0  0
   51.8150   80.2000   23.5870 N   0  0  0  0  0  0  0  0  0  0  0  0
   51.7420   80.9860   22.3590 C   0  0  0  0  0  0  0  0  0  0  0  0
   52.9360   79.2380   23.5210 C   0  0  0  0  0  0  0  0  0  0  0  0
   53.4460   78.7630   24.9020 C   0  0  0  0  0  0  0  0  0  0  0  0
   56.0640   80.5990   26.6260 C   0  0  0  0  0  0  0  0  0  0  0  0
   57.1000   80.4630   27.5600 C   0  0  0  0  0  0  0  0  0  0  0  0
   57.0520   79.4730   28.5390 C   0  0  0  0  0  0  0  0  0  0  0  0
   58.0640   79.3200   29.5130 N   0  0  0  0  0  0  0  0  0  0  0  0
   58.6780   80.2410   30.3870 C   0  0  0  0  0  0  0  0  0  0  0  0
   58.2640   80.2320   31.7300 C   0  0  0  0  0  0  0  0  0  0  0  0
   58.7990   81.1280   32.6630 C   0  0  0  0  0  0  0  0  0  0  0  0
   59.7620   82.0520   32.2690 C   0  0  0  0  0  0  0  0  0  0  0  0
   60.1890   82.0770   30.9440 C   0  0  0  0  0  0  0  0  0  0  0  0
   59.6500   81.1810   30.0180 C   0  0  0  0  0  0  0  0  0  0  0  0
   60.1380   81.2240   28.7700 F   0  0  0  0  0  0  0  0  0  0  0  0
   54.8301   76.1643   30.4329 H   0  0  0  0  0  0  0  0  0  0  0  0
   54.2013   76.8303   28.8876 H   0  0  0  0  0  0  0  0  0  0  0  0
   55.6665   75.7911   28.8876 H   0  0  0  0  0  0  0  0  0  0  0  0
   54.0196   78.1177   27.6962 H   0  0  0  0  0  0  0  0  0  0  0  0
   53.2741   81.8173   26.3024 H   0  0  0  0  0  0  0  0  0  0  0  0
   53.9773   81.7100   24.6407 H   0  0  0  0  0  0  0  0  0  0  0  0
   51.2658   80.6332   25.5629 H   0  0  0  0  0  0  0  0  0  0  0  0
   51.6182   82.0667   24.4566 H   0  0  0  0  0  0  0  0  0  0  0  0
   51.6430   82.0521   22.6114 H   0  0  0  0  0  0  0  0  0  0  0  0
   52.6583   80.8321   21.7702 H   0  0  0  0  0  0  0  0  0  0  0  0
   50.8697   80.6660   21.7702 H   0  0  0  0  0  0  0  0  0  0  0  0
   52.6011   78.3563   22.9550 H   0  0  0  0  0  0  0  0  0  0  0  0
   53.7739   79.7617   23.0376 H   0  0  0  0  0  0  0  0  0  0  0  0
   52.6262   78.2594   25.4352 H   0  0  0  0  0  0  0  0  0  0  0  0
   54.2861   78.0699   24.7476 H   0  0  0  0  0  0  0  0  0  0  0  0
   56.1367   81.3863   25.8612 H   0  0  0  0  0  0  0  0  0  0  0  0
   57.9613   81.1461   27.5196 H   0  0  0  0  0  0  0  0  0  0  0  0
   58.6900   78.5610   29.2470 H   0  0  0  0  0  0  0  0  0  0  0  0
   57.5040   79.5060   32.0546 H   0  0  0  0  0  0  0  0  0  0  0  0
   58.4579   81.1016   33.7084 H   0  0  0  0  0  0  0  0  0  0  0  0
   60.1832   82.7582   32.9997 H   0  0  0  0  0  0  0  0  0  0  0  0
   60.9516   82.8032   30.6261 H   0  0  0  0  0  0  0  0  0  0  0  0
  1  2  1  0
  2  3  1  0
  3  4  1  0
  4  5  2  0
  5  6  1  0
  6  7  1  0
  7  8  1  0
  8  9  1  0
  9 10  1  0
  9 11  1  0
 11 12  1  0
  5 13  1  0
 13 14  2  0
 14 15  1  0
 15 16  1  0
 16 17  1  0
 17 18  2  0
 18 19  1  0
 19 20  2  0
 20 21  1  0
 21 22  2  0
 22 23  1  0
 15  3  2  0
 22 17  1  0
 12  6  1  0
  1 24  1  0
  1 25  1  0
  1 26  1  0
  4 27  1  0
  7 28  1  0
  7 29  1  0
  8 30  1  0
  8 31  1  0
 10 32  1  0
 10 33  1  0
 10 34  1  0
 11 35  1  0
 11 36  1  0
 12 37  1  0
 12 38  1  0
 13 39  1  0
 14 40  1  0
 16 41  1  0
 18 42  1  0
 19 43  1  0
 20 44  1  0
 21 45  1  0
M  END
>  <meeko>  (1) 
{"is_sidechain": false}

>  <smiles>  (1) 
COc1cc(N2CCN(C)CC2)ccc1Nc1ccccc1F

>  <vina_score>  (1) 
-7.941

>  <job_id>  (1) 
318f9ae3aa68241c

$$$$
