
     RDKit          3D

 25 27  0  0  0  0  0  0  0  0999 V2000
   60.0600   81.2800   28.9920 O   0  0  0  0  0  0  0  0  0  0  0  0
   59.2500   80.8120   29.7860 C   0  0  0  0  0  0  0  0  0  0  0  0
   58.5350   79.6550   29.6210 N   0  0  0  0  0  0  0  0  0  0  0  0
   57.7130   79.6060   28.6260 C   0  0  0  0  0  0  0  0  0  0  0  0
   57.4300   80.5460   27.6270 N   0  0  0  0  0  0  0  0  0  0  0  0
   56.2230   80.2360   27.0280 N   0  0  0  0  0  0  0  0  0  0  0  0
   55.7400   79.1060   27.6420 C   0  0  0  0  0  0  0  0  0  0  0  0
   54.5310   78.7350   28.0770 C   0  0  0  0  0  0  0  0  0  0  0  0
   54.7210   77.8330   29.1960 C   0  0  0  0  0  0  0  0  0  0  0  0
   56.0320   77.6820   29.4550 C   0  0  0  0  0  0  0  0  0  0  0  0
   56.8340   78.3620   28.3950 C   0  0  0  0  0  0  0  0  0  0  0  0
   58.9350   81.5550   31.0350 C   0  0  0  0  0  0  0  0  0  0  0  0
   58.1850   80.9040   32.1740 C   0  0  0  0  0  0  0  0  0  0  0  0
   59.6500   81.2010   32.3200 C   0  0  0  0  0  0  0  0  0  0  0  0
   57.6650   81.5160   27.8630 H   0  0  0  0  0  0  0  0  0  0  0  0
   55.5320   80.9890   26.9880 H   0  0  0  0  0  0  0  0  0  0  0  0
   53.5651   79.0567   27.6603 H   0  0  0  0  0  0  0  0  0  0  0  0
   53.9093   77.3425   29.7532 H   0  0  0  0  0  0  0  0  0  0  0  0
   56.4497   77.1402   30.3164 H   0  0  0  0  0  0  0  0  0  0  0  0
   57.4926   77.5539   28.0440 H   0  0  0  0  0  0  0  0  0  0  0  0
   58.7876   82.4667   30.4374 H   0  0  0  0  0  0  0  0  0  0  0  0
   57.4472   81.4836   32.7482 H   0  0  0  0  0  0  0  0  0  0  0  0
   57.5612   80.0041   32.2788 H   0  0  0  0  0  0  0  0  0  0  0  0
   59.9840   81.9980   33.0006 H   0  0  0  0  0  0  0  0  0  0  0  0
   60.5410   80.6087   32.5754 H   0  0  0  0  0  0  0  0  0  0  0  0
  1  2  2  0
  2  3  1  0
  3  4  2  3
  4  5  1  0
  5  6  1  0
  6  7  1  0
  7  8  2  0
  8  9  1  0
  9 10  2  0
 10 11  1  0
  2 12  1  0
 12 13  1  0
 13 14  1  0
 11  4  1  0
 14 12  1  0
 11  7  1  0
  5 15  1  0
  6 16  1  0
  8 17  1  0
  9 18  1  0
 10 19  1  0
 11 20  1  0
 12 21  1  0
 13 22  1  0
 13 23  1  0
 14 24  1  0
 14 25  1  0
M  END
>  <meeko>  (1) 
{"is_sidechain": false}

>  <smiles>  (1) 
O=C(N=C1NNC2=CC=CC21)C1CC1

>  <vina_score>  (1) 
-6.469

>  <job_id>  (1) 
31d1fd8600f72bfa

$$$$
