
     RDKit          3D

 70 74  0  0  0  0  0  0  0  0999 V2000
   63.1620   83.5290   35.0320 C   0  0  0  0  0  0  0  0  0  0  0  0
   62.0070   84.2550   34.3180 C   0  0  0  0  0  0  0  0  0  0  0  0
   61.1790   84.9540   35.4410 C   0  0  0  0  0  0  0  0  0  0  0  0
   62.5090   85.4120   33.4460 C   0  0  0  0  0  0  0  0  0  0  0  0
   61.1250   83.2370   33.5720 C   0  0  0  0  0  0  0  0  0  0  0  0
   59.8370   82.8670   33.9730 C   0  0  0  0  0  0  0  0  0  0  0  0
   59.2780   81.9840   33.0340 C   0  0  0  0  0  0  0  0  0  0  0  0
   58.0690   81.3270   32.8610 C   0  0  0  0  0  0  0  0  0  0  0  0
   57.8870   80.5390   31.7820 N   0  0  0  0  0  0  0  0  0  0  0  0
   58.8770   80.4250   30.8760 C   0  0  0  0  0  0  0  0  0  0  0  0
   58.7280   79.5930   29.7640 N   0  0  0  0  0  0  0  0  0  0  0  0
   57.6090   79.5160   28.9200 C   0  0  0  0  0  0  0  0  0  0  0  0
   56.6450   78.5550   29.2060 C   0  0  0  0  0  0  0  0  0  0  0  0
   55.5120   78.4350   28.3910 C   0  0  0  0  0  0  0  0  0  0  0  0
   55.3190   79.2700   27.2870 C   0  0  0  0  0  0  0  0  0  0  0  0
   54.1940   79.1430   26.4550 N   0  0  0  0  0  0  0  0  0  0  0  0
   52.9690   79.8480   26.8900 C   0  0  0  0  0  0  0  0  0  0  0  0
   53.1050   81.3700   26.7650 C   0  0  0  0  0  0  0  0  0  0  0  0
   52.5550   81.9810   25.4590 C   0  0  0  0  0  0  0  0  0  0  0  0
   53.5170   81.9010   24.3570 N   0  0  0  0  0  0  0  0  0  0  0  0
   53.2790   80.7680   23.4650 C   0  0  0  0  0  0  0  0  0  0  0  0
   53.2180   79.3880   24.1280 C   0  0  0  0  0  0  0  0  0  0  0  0
   54.4290   79.0380   24.9990 C   0  0  0  0  0  0  0  0  0  0  0  0
   56.3550   80.1870   27.0880 C   0  0  0  0  0  0  0  0  0  0  0  0
   57.4650   80.3270   27.8600 N   0  0  0  0  0  0  0  0  0  0  0  0
   60.0900   80.9980   30.9810 N   0  0  0  0  0  0  0  0  0  0  0  0
   60.2390   81.7720   32.0730 C   0  0  0  0  0  0  0  0  0  0  0  0
   61.3950   82.4740   32.4270 N   0  0  0  0  0  0  0  0  0  0  0  0
   62.5760   82.3140   31.5960 C   0  0  0  0  0  0  0  0  0  0  0  0
   63.8770   81.7600   32.1760 C   0  0  0  0  0  0  0  0  0  0  0  0
   64.8760   82.0460   31.0600 C   0  0  0  0  0  0  0  0  0  0  0  0
   64.4850   83.4340   30.5650 C   0  0  0  0  0  0  0  0  0  0  0  0
   62.9660   83.5270   30.7410 C   0  0  0  0  0  0  0  0  0  0  0  0
   63.0299   83.6120   36.1209 H   0  0  0  0  0  0  0  0  0  0  0  0
   63.1627   82.4678   34.7426 H   0  0  0  0  0  0  0  0  0  0  0  0
   64.1186   83.9886   34.7426 H   0  0  0  0  0  0  0  0  0  0  0  0
   61.5547   84.6368   36.4250 H   0  0  0  0  0  0  0  0  0  0  0  0
   61.2787   86.0452   35.3448 H   0  0  0  0  0  0  0  0  0  0  0  0
   60.1199   84.6727   35.3448 H   0  0  0  0  0  0  0  0  0  0  0  0
   62.8638   86.2297   34.0905 H   0  0  0  0  0  0  0  0  0  0  0  0
   63.3356   85.0607   32.8109 H   0  0  0  0  0  0  0  0  0  0  0  0
   61.6877   85.7756   32.8109 H   0  0  0  0  0  0  0  0  0  0  0  0
   59.3360   83.2157   34.8881 H   0  0  0  0  0  0  0  0  0  0  0  0
   57.2631   81.4480   33.5998 H   0  0  0  0  0  0  0  0  0  0  0  0
   59.5880   79.6620   29.2410 H   0  0  0  0  0  0  0  0  0  0  0  0
   56.7723   77.8891   30.0723 H   0  0  0  0  0  0  0  0  0  0  0  0
   54.7589   77.6680   28.6247 H   0  0  0  0  0  0  0  0  0  0  0  0
   52.1270   79.5145   26.2656 H   0  0  0  0  0  0  0  0  0  0  0  0
   52.7986   79.6088   27.9501 H   0  0  0  0  0  0  0  0  0  0  0  0
   52.5660   81.8287   27.6071 H   0  0  0  0  0  0  0  0  0  0  0  0
   54.1852   81.5777   26.7641 H   0  0  0  0  0  0  0  0  0  0  0  0
   51.6426   81.4379   25.1717 H   0  0  0  0  0  0  0  0  0  0  0  0
   52.3482   83.0448   25.6473 H   0  0  0  0  0  0  0  0  0  0  0  0
   53.4190   82.7540   23.7930 H   0  0  0  0  0  0  0  0  0  0  0  0
   52.3195   80.9381   22.9546 H   0  0  0  0  0  0  0  0  0  0  0  0
   54.1489   80.7341   22.7926 H   0  0  0  0  0  0  0  0  0  0  0  0
   52.3194   79.3524   24.7615 H   0  0  0  0  0  0  0  0  0  0  0  0
   53.2027   78.6526   23.3101 H   0  0  0  0  0  0  0  0  0  0  0  0
   54.7255   78.0030   24.7736 H   0  0  0  0  0  0  0  0  0  0  0  0
   55.2093   79.7744   24.7564 H   0  0  0  0  0  0  0  0  0  0  0  0
   56.2632   80.8604   26.2231 H   0  0  0  0  0  0  0  0  0  0  0  0
   62.1342   81.5013   31.0007 H   0  0  0  0  0  0  0  0  0  0  0  0
   64.1546   82.2828   33.1032 H   0  0  0  0  0  0  0  0  0  0  0  0
   63.8187   80.6974   32.4542 H   0  0  0  0  0  0  0  0  0  0  0  0
   65.9058   82.0440   31.4466 H   0  0  0  0  0  0  0  0  0  0  0  0
   64.8501   81.2884   30.2629 H   0  0  0  0  0  0  0  0  0  0  0  0
   64.9880   84.2093   31.1616 H   0  0  0  0  0  0  0  0  0  0  0  0
   64.7815   83.5886   29.5171 H   0  0  0  0  0  0  0  0  0  0  0  0
   62.6952   84.4616   31.2539 H   0  0  0  0  0  0  0  0  0  0  0  0
   62.4429   83.5287   29.7733 H   0  0  0  0  0  0  0  0  0  0  0  0
  1  2  1  0
  2  3  1  0
  2  4  1  0
  2  5  1  0
  5  6  2  0
  6  7  1  0
  7  8  2  0
  8  9  1  0
  9 10  2  0
 10 11  1  0
 11 12  1  0
 12 13  2  0
 13 14  1  0
 14 15  2  0
 15 16  1  0
 16 17  1  0
 17 18  1  0
 18 19  1  0
 19 20  1  0
 20 21  1  0
 21 22  1  0
 22 23  1  0
 15 24  1  0
 24 25  2  0
 10 26  1  0
 26 27  2  0
 27 28  1  0
 28 29  1  0
 29 30  1  0
 30 31  1  0
 31 32  1  0
 32 33  1  0
 28  5  1  0
 33 29  1  0
 27  7  1  0
 25 12  1  0
 23 16  1  0
  1 34  1  0
  1 35  1  0
  1 36  1  0
  3 37  1  0
  3 38  1  0
  3 39  1  0
  4 40  1  0
  4 41  1  0
  4 42  1  0
  6 43  1  0
  8 44  1  0
 11 45  1  0
 13 46  1  0
 14 47  1  0
 17 48  1  0
 17 49  1  0
 18 50  1  0
 18 51  1  0
 19 52  1  0
 19 53  1  0
 20 54  1  0
 21 55  1  0
 21 56  1  0
 22 57  1  0
 22 58  1  0
 23 59  1  0
 23 60  1  0
 24 61  1  0
 29 62  1  0
 30 63  1  0
 30 64  1  0
 31 65  1  0
 31 66  1  0
 32 67  1  0
 32 68  1  0
 33 69  1  0
 33 70  1  0
M  END
>  <meeko>  (1) 
{"is_sidechain": false}

>  <smiles>  (1) 
CC(C)(C)c1cc2cnc(Nc3ccc(N4CCCNCCC4)cn3)nc2n1C1CCCC1

>  <vina_score>  (1) 
-6.247

>  <job_id>  (1) 
31f723cdd02c60ad

$$$$
