
     RDKit          3D

 44 46  0  0  0  0  0  0  0  0999 V2000
   52.4990   81.2960   24.5160 C   0  0  0  0  0  0  0  0  0  0  0  0
   52.1850   79.9090   24.4880 O   0  0  0  0  0  0  0  0  0  0  0  0
   53.3510   79.0830   24.4700 C   0  0  0  0  0  0  0  0  0  0  0  0
   53.7160   78.5790   25.8450 C   0  0  0  0  0  0  0  0  0  0  0  0
   52.9440   77.5980   26.4700 C   0  0  0  0  0  0  0  0  0  0  0  0
   53.2820   77.1620   27.7460 C   0  0  0  0  0  0  0  0  0  0  0  0
   54.3870   77.7110   28.4070 C   0  0  0  0  0  0  0  0  0  0  0  0
   55.1860   78.7080   27.8240 C   0  0  0  0  0  0  0  0  0  0  0  0
   56.2800   79.2430   28.4830 N   0  0  0  0  0  0  0  0  0  0  0  0
   56.7170   78.7320   29.7940 C   0  0  0  0  0  0  0  0  0  0  0  0
   57.4150   79.8190   30.6450 C   0  0  0  0  0  0  0  0  0  0  0  0
   58.5530   80.4300   29.9360 N   0  0  0  0  0  0  0  0  0  0  0  0
   59.5980   81.0320   30.6150 C   0  0  0  0  0  0  0  0  0  0  0  0
   59.7870   80.8480   31.9960 C   0  0  0  0  0  0  0  0  0  0  0  0
   60.8390   81.4550   32.6950 C   0  0  0  0  0  0  0  0  0  0  0  0
   61.7290   82.2690   32.0130 C   0  0  0  0  0  0  0  0  0  0  0  0
   62.7670   82.8820   32.6460 O   0  0  0  0  0  0  0  0  0  0  0  0
   61.5800   82.4810   30.6530 C   0  0  0  0  0  0  0  0  0  0  0  0
   60.5240   81.8690   29.9660 C   0  0  0  0  0  0  0  0  0  0  0  0
   58.4650   80.4680   28.4660 C   0  0  0  0  0  0  0  0  0  0  0  0
   57.0030   80.4150   27.9620 C   0  0  0  0  0  0  0  0  0  0  0  0
   54.8180   79.1230   26.5330 C   0  0  0  0  0  0  0  0  0  0  0  0
   52.5754   81.6336   25.5601 H   0  0  0  0  0  0  0  0  0  0  0  0
   53.4582   81.4652   24.0048 H   0  0  0  0  0  0  0  0  0  0  0  0
   51.7062   81.8618   24.0048 H   0  0  0  0  0  0  0  0  0  0  0  0
   53.1630   78.2196   23.8149 H   0  0  0  0  0  0  0  0  0  0  0  0
   54.1895   79.6917   24.1007 H   0  0  0  0  0  0  0  0  0  0  0  0
   52.0710   77.1714   25.9544 H   0  0  0  0  0  0  0  0  0  0  0  0
   52.6797   76.3837   28.2374 H   0  0  0  0  0  0  0  0  0  0  0  0
   54.6376   77.3499   29.4154 H   0  0  0  0  0  0  0  0  0  0  0  0
   55.8366   78.3650   30.3419 H   0  0  0  0  0  0  0  0  0  0  0  0
   57.4440   77.9260   29.6156 H   0  0  0  0  0  0  0  0  0  0  0  0
   56.6839   80.6047   30.8864 H   0  0  0  0  0  0  0  0  0  0  0  0
   57.8009   79.3402   31.5571 H   0  0  0  0  0  0  0  0  0  0  0  0
   59.0847   80.2052   32.5469 H   0  0  0  0  0  0  0  0  0  0  0  0
   60.9572   81.2867   33.7756 H   0  0  0  0  0  0  0  0  0  0  0  0
   62.4760   83.1390   33.5360 H   0  0  0  0  0  0  0  0  0  0  0  0
   62.2882   83.1276   30.1141 H   0  0  0  0  0  0  0  0  0  0  0  0
   60.4153   82.0482   28.8862 H   0  0  0  0  0  0  0  0  0  0  0  0
   58.9287   81.3991   28.1081 H   0  0  0  0  0  0  0  0  0  0  0  0
   58.9872   79.5822   28.0753 H   0  0  0  0  0  0  0  0  0  0  0  0
   56.4820   81.3271   28.2884 H   0  0  0  0  0  0  0  0  0  0  0  0
   57.0253   80.3392   26.8648 H   0  0  0  0  0  0  0  0  0  0  0  0
   55.4147   79.9044   26.0397 H   0  0  0  0  0  0  0  0  0  0  0  0
  1  2  1  0
  2  3  1  0
  3  4  1  0
  4  5  2  0
  5  6  1  0
  6  7  2  0
  7  8  1  0
  8  9  1  0
  9 10  1  0
 10 11  1  0
 11 12  1  0
 12 13  1  0
 13 14  1  0
 14 15  2  0
 15 16  1  0
 16 17  1  0
 16 18  2  0
 18 19  1  0
 12 20  1  0
 20 21  1  0
  8 22  2  0
 22  4  1  0
 21  9  1  0
 19 13  2  0
  1 23  1  0
  1 24  1  0
  1 25  1  0
  3 26  1  0
  3 27  1  0
  5 28  1  0
  6 29  1  0
  7 30  1  0
 10 31  1  0
 10 32  1  0
 11 33  1  0
 11 34  1  0
 14 35  1  0
 15 36  1  0
 17 37  1  0
 18 38  1  0
 19 39  1  0
 20 40  1  0
 20 41  1  0
 21 42  1  0
 21 43  1  0
 22 44  1  0
M  END
>  <meeko>  (1) 
{"is_sidechain": false}

>  <smiles>  (1) 
COCc1cccc(N2CCN(c3ccc(O)cc3)CC2)c1

>  <vina_score>  (1) 
-6.399

>  <job_id>  (1) 
3274705a20b61a88

$$$$
