
     RDKit          3D

 46 48  0  0  0  0  0  0  0  0999 V2000
   59.2190   83.2240   30.7200 O   0  0  0  0  0  0  0  0  0  0  0  0
   60.1970   82.4920   30.6200 C   0  0  0  0  0  0  0  0  0  0  0  0
   60.1960   81.1380   30.3350 N   0  0  0  0  0  0  0  0  0  0  0  0
   59.0810   80.3240   30.0430 C   0  0  0  0  0  0  0  0  0  0  0  0
   58.1440   79.9130   30.9940 C   0  0  0  0  0  0  0  0  0  0  0  0
   57.0610   79.1080   30.6230 C   0  0  0  0  0  0  0  0  0  0  0  0
   56.9050   78.7300   29.2890 C   0  0  0  0  0  0  0  0  0  0  0  0
   55.7820   77.8630   28.8850 C   0  0  0  0  0  0  0  0  0  0  0  0
   55.9320   76.6500   29.0240 O   0  0  0  0  0  0  0  0  0  0  0  0
   54.6230   78.4440   28.3620 N   0  0  0  0  0  0  0  0  0  0  0  0
   53.5550   77.5130   27.9800 C   0  0  0  0  0  0  0  0  0  0  0  0
   53.2080   77.4550   26.4920 C   0  0  0  0  0  0  0  0  0  0  0  0
   52.9740   78.8150   25.8210 C   0  0  0  0  0  0  0  0  0  0  0  0
   54.2180   79.6010   25.4110 C   0  0  0  0  0  0  0  0  0  0  0  0
   55.0670   80.1120   26.5620 C   0  0  0  0  0  0  0  0  0  0  0  0
   54.5120   79.8480   27.9590 C   0  0  0  0  0  0  0  0  0  0  0  0
   57.8420   79.1150   28.3310 C   0  0  0  0  0  0  0  0  0  0  0  0
   58.9230   79.9160   28.7080 C   0  0  0  0  0  0  0  0  0  0  0  0
   61.5460   83.0780   30.8590 C   0  0  0  0  0  0  0  0  0  0  0  0
   62.6450   82.2130   30.9420 C   0  0  0  0  0  0  0  0  0  0  0  0
   63.9240   82.7260   31.1630 C   0  0  0  0  0  0  0  0  0  0  0  0
   64.1080   84.1010   31.3140 C   0  0  0  0  0  0  0  0  0  0  0  0
   63.0130   84.9650   31.2520 C   0  0  0  0  0  0  0  0  0  0  0  0
   61.7310   84.4570   31.0300 C   0  0  0  0  0  0  0  0  0  0  0  0
   61.0830   80.6560   30.4060 H   0  0  0  0  0  0  0  0  0  0  0  0
   58.2583   80.2245   32.0428 H   0  0  0  0  0  0  0  0  0  0  0  0
   56.3358   78.7747   31.3799 H   0  0  0  0  0  0  0  0  0  0  0  0
   53.8622   76.5040   28.2922 H   0  0  0  0  0  0  0  0  0  0  0  0
   52.6482   77.8858   28.4787 H   0  0  0  0  0  0  0  0  0  0  0  0
   54.0368   76.9557   25.9687 H   0  0  0  0  0  0  0  0  0  0  0  0
   52.2535   76.9127   26.4226 H   0  0  0  0  0  0  0  0  0  0  0  0
   52.3760   78.6408   24.9143 H   0  0  0  0  0  0  0  0  0  0  0  0
   52.4804   79.4332   26.5853 H   0  0  0  0  0  0  0  0  0  0  0  0
   54.8457   78.9453   24.7897 H   0  0  0  0  0  0  0  0  0  0  0  0
   53.8548   80.4929   24.8794 H   0  0  0  0  0  0  0  0  0  0  0  0
   56.0542   79.6315   26.4937 H   0  0  0  0  0  0  0  0  0  0  0  0
   55.0962   81.2061   26.4517 H   0  0  0  0  0  0  0  0  0  0  0  0
   55.0686   80.4649   28.6799 H   0  0  0  0  0  0  0  0  0  0  0  0
   53.4419   80.1023   27.9419 H   0  0  0  0  0  0  0  0  0  0  0  0
   57.7310   78.7905   27.2858 H   0  0  0  0  0  0  0  0  0  0  0  0
   59.6576   80.2303   27.9520 H   0  0  0  0  0  0  0  0  0  0  0  0
   62.4996   81.1281   30.8328 H   0  0  0  0  0  0  0  0  0  0  0  0
   64.7871   82.0463   31.2182 H   0  0  0  0  0  0  0  0  0  0  0  0
   65.1173   84.5048   31.4821 H   0  0  0  0  0  0  0  0  0  0  0  0
   63.1602   86.0478   31.3782 H   0  0  0  0  0  0  0  0  0  0  0  0
   60.8680   85.1379   30.9894 H   0  0  0  0  0  0  0  0  0  0  0  0
  1  2  2  0
  2  3  1  0
  3  4  1  0
  4  5  1  0
  5  6  2  0
  6  7  1  0
  7  8  1  0
  8  9  2  0
  8 10  1  0
 10 11  1  0
 11 12  1  0
 12 13  1  0
 13 14  1  0
 14 15  1  0
 15 16  1  0
  7 17  2  0
 17 18  1  0
  2 19  1  0
 19 20  2  0
 20 21  1  0
 21 22  2  0
 22 23  1  0
 23 24  2  0
 18  4  2  0
 24 19  1  0
 16 10  1  0
  3 25  1  0
  5 26  1  0
  6 27  1  0
 11 28  1  0
 11 29  1  0
 12 30  1  0
 12 31  1  0
 13 32  1  0
 13 33  1  0
 14 34  1  0
 14 35  1  0
 15 36  1  0
 15 37  1  0
 16 38  1  0
 16 39  1  0
 17 40  1  0
 18 41  1  0
 20 42  1  0
 21 43  1  0
 22 44  1  0
 23 45  1  0
 24 46  1  0
M  END
>  <meeko>  (1) 
{"is_sidechain": false}

>  <smiles>  (1) 
O=C(Nc1ccc(C(=O)N2CCCCCC2)cc1)c1ccccc1

>  <vina_score>  (1) 
-5.755

>  <job_id>  (1) 
329a5c277e4f3875

$$$$
