
     RDKit          3D

 43 45  0  0  0  0  0  0  0  0999 V2000
   63.2280   82.9490   32.9540 C   0  0  0  0  0  0  0  0  0  0  0  0
   62.0120   83.2580   32.2060 N   0  0  0  0  0  0  0  0  0  0  0  0
   60.8050   82.7290   32.8770 C   0  0  0  0  0  0  0  0  0  0  0  0
   60.2590   81.3900   32.3270 C   0  0  0  0  0  0  0  0  0  0  0  0
   59.9950   81.4730   30.8810 N   0  0  0  0  0  0  0  0  0  0  0  0
   59.0290   80.6870   30.2760 C   0  0  0  0  0  0  0  0  0  0  0  0
   58.1330   79.9040   31.0170 C   0  0  0  0  0  0  0  0  0  0  0  0
   57.1560   79.1070   30.4020 C   0  0  0  0  0  0  0  0  0  0  0  0
   57.0380   79.0670   29.0130 C   0  0  0  0  0  0  0  0  0  0  0  0
   56.0260   78.2480   28.4690 N   0  0  0  0  0  0  0  0  0  0  0  0
   54.7650   78.6370   28.0530 C   0  0  0  0  0  0  0  0  0  0  0  0
   54.3190   79.7770   28.0180 O   0  0  0  0  0  0  0  0  0  0  0  0
   53.9010   77.5260   27.5640 C   0  0  0  0  0  0  0  0  0  0  0  0
   53.3100   77.5570   26.2930 C   0  0  0  0  0  0  0  0  0  0  0  0
   52.5070   76.4930   25.8740 C   0  0  0  0  0  0  0  0  0  0  0  0
   52.2990   75.3990   26.7130 C   0  0  0  0  0  0  0  0  0  0  0  0
   52.9010   75.3570   27.9710 C   0  0  0  0  0  0  0  0  0  0  0  0
   53.7050   76.4160   28.3950 C   0  0  0  0  0  0  0  0  0  0  0  0
   57.9090   79.8410   28.2560 C   0  0  0  0  0  0  0  0  0  0  0  0
   58.8850   80.6320   28.8820 C   0  0  0  0  0  0  0  0  0  0  0  0
   60.7540   82.4910   30.1360 C   0  0  0  0  0  0  0  0  0  0  0  0
   62.1160   82.7590   30.8180 C   0  0  0  0  0  0  0  0  0  0  0  0
   63.0185   83.0022   34.0326 H   0  0  0  0  0  0  0  0  0  0  0  0
   63.5694   81.9356   32.6964 H   0  0  0  0  0  0  0  0  0  0  0  0
   64.0118   83.6765   32.6964 H   0  0  0  0  0  0  0  0  0  0  0  0
   61.0468   82.5832   33.9401 H   0  0  0  0  0  0  0  0  0  0  0  0
   60.0135   83.4708   32.6948 H   0  0  0  0  0  0  0  0  0  0  0  0
   61.0002   80.5983   32.5110 H   0  0  0  0  0  0  0  0  0  0  0  0
   59.3126   81.1642   32.8401 H   0  0  0  0  0  0  0  0  0  0  0  0
   58.1980   79.9149   32.1150 H   0  0  0  0  0  0  0  0  0  0  0  0
   56.4749   78.5064   31.0228 H   0  0  0  0  0  0  0  0  0  0  0  0
   56.2870   77.2850   28.3060 H   0  0  0  0  0  0  0  0  0  0  0  0
   53.4780   78.4166   25.6275 H   0  0  0  0  0  0  0  0  0  0  0  0
   52.0377   76.5186   24.8795 H   0  0  0  0  0  0  0  0  0  0  0  0
   51.6591   74.5675   26.3825 H   0  0  0  0  0  0  0  0  0  0  0  0
   52.7420   74.4895   28.6284 H   0  0  0  0  0  0  0  0  0  0  0  0
   54.1856   76.3787   29.3837 H   0  0  0  0  0  0  0  0  0  0  0  0
   57.8331   79.8338   27.1586 H   0  0  0  0  0  0  0  0  0  0  0  0
   59.5623   81.2312   28.2558 H   0  0  0  0  0  0  0  0  0  0  0  0
   60.9271   82.1344   29.1099 H   0  0  0  0  0  0  0  0  0  0  0  0
   60.1743   83.4257   30.1202 H   0  0  0  0  0  0  0  0  0  0  0  0
   62.6858   81.8182   30.8316 H   0  0  0  0  0  0  0  0  0  0  0  0
   62.6111   83.5493   30.2347 H   0  0  0  0  0  0  0  0  0  0  0  0
  1  2  1  0
  2  3  1  0
  3  4  1  0
  4  5  1  0
  5  6  1  0
  6  7  1  0
  7  8  2  0
  8  9  1  0
  9 10  1  0
 10 11  1  0
 11 12  2  0
 11 13  1  0
 13 14  2  0
 14 15  1  0
 15 16  2  0
 16 17  1  0
 17 18  2  0
  9 19  2  0
 19 20  1  0
  5 21  1  0
 21 22  1  0
 22  2  1  0
 20  6  2  0
 18 13  1  0
  1 23  1  0
  1 24  1  0
  1 25  1  0
  3 26  1  0
  3 27  1  0
  4 28  1  0
  4 29  1  0
  7 30  1  0
  8 31  1  0
 10 32  1  0
 14 33  1  0
 15 34  1  0
 16 35  1  0
 17 36  1  0
 18 37  1  0
 19 38  1  0
 20 39  1  0
 21 40  1  0
 21 41  1  0
 22 42  1  0
 22 43  1  0
M  END
>  <meeko>  (1) 
{"is_sidechain": false}

>  <smiles>  (1) 
CN1CCN(c2ccc(NC(=O)c3ccccc3)cc2)CC1

>  <vina_score>  (1) 
-7.463

>  <job_id>  (1) 
32ebb709a883cb89

$$$$
