
     RDKit          3D

 46 48  0  0  0  0  0  0  0  0999 V2000
   52.0840   75.5930   26.8970 C   0  0  0  0  0  0  0  0  0  0  0  0
   53.1140   76.3780   27.5280 N   0  0  0  0  0  0  0  0  0  0  0  0
   53.4850   77.5980   26.9990 C   0  0  0  0  0  0  0  0  0  0  0  0
   52.9350   78.1110   26.0310 O   0  0  0  0  0  0  0  0  0  0  0  0
   54.6460   78.2720   27.6450 C   0  0  0  0  0  0  0  0  0  0  0  0
   55.1320   77.7540   28.8490 C   0  0  0  0  0  0  0  0  0  0  0  0
   56.2210   78.3570   29.4880 C   0  0  0  0  0  0  0  0  0  0  0  0
   56.8510   79.4830   28.9350 C   0  0  0  0  0  0  0  0  0  0  0  0
   57.9980   80.1150   29.6070 C   0  0  0  0  0  0  0  0  0  0  0  0
   58.9460   80.8520   28.8890 C   0  0  0  0  0  0  0  0  0  0  0  0
   60.0360   81.4560   29.5350 C   0  0  0  0  0  0  0  0  0  0  0  0
   60.2350   81.3520   30.9190 C   0  0  0  0  0  0  0  0  0  0  0  0
   61.3160   81.9470   31.5480 N   0  0  0  0  0  0  0  0  0  0  0  0
   62.2150   82.8670   30.8320 C   0  0  0  0  0  0  0  0  0  0  0  0
   62.8580   83.8910   31.7980 C   0  0  0  0  0  0  0  0  0  0  0  0
   63.5860   83.3220   32.9510 N   0  0  0  0  0  0  0  0  0  0  0  0
   65.0270   83.2840   32.7200 C   0  0  0  0  0  0  0  0  0  0  0  0
   63.0800   81.9740   33.2930 C   0  0  0  0  0  0  0  0  0  0  0  0
   61.5790   81.7630   32.9850 C   0  0  0  0  0  0  0  0  0  0  0  0
   59.2800   80.6070   31.6250 C   0  0  0  0  0  0  0  0  0  0  0  0
   58.1850   80.0030   30.9890 C   0  0  0  0  0  0  0  0  0  0  0  0
   56.3620   79.9830   27.7170 C   0  0  0  0  0  0  0  0  0  0  0  0
   55.2720   79.3840   27.0720 C   0  0  0  0  0  0  0  0  0  0  0  0
   51.4605   75.1178   27.6687 H   0  0  0  0  0  0  0  0  0  0  0  0
   51.4581   76.2452   26.2702 H   0  0  0  0  0  0  0  0  0  0  0  0
   52.5469   74.8165   26.2702 H   0  0  0  0  0  0  0  0  0  0  0  0
   53.7630   75.8980   28.1360 H   0  0  0  0  0  0  0  0  0  0  0  0
   54.6563   76.8686   29.2960 H   0  0  0  0  0  0  0  0  0  0  0  0
   56.5890   77.9424   30.4381 H   0  0  0  0  0  0  0  0  0  0  0  0
   58.8353   80.9599   27.7999 H   0  0  0  0  0  0  0  0  0  0  0  0
   60.7580   82.0300   28.9356 H   0  0  0  0  0  0  0  0  0  0  0  0
   63.0112   82.2840   30.3461 H   0  0  0  0  0  0  0  0  0  0  0  0
   61.6246   83.4179   30.0851 H   0  0  0  0  0  0  0  0  0  0  0  0
   63.5674   84.5008   31.2193 H   0  0  0  0  0  0  0  0  0  0  0  0
   62.0211   84.4617   32.2268 H   0  0  0  0  0  0  0  0  0  0  0  0
   65.5530   83.2701   33.6860 H   0  0  0  0  0  0  0  0  0  0  0  0
   65.2832   82.3788   32.1500 H   0  0  0  0  0  0  0  0  0  0  0  0
   65.3306   84.1744   32.1500 H   0  0  0  0  0  0  0  0  0  0  0  0
   63.6571   81.2333   32.7200 H   0  0  0  0  0  0  0  0  0  0  0  0
   63.1987   81.8584   34.3804 H   0  0  0  0  0  0  0  0  0  0  0  0
   61.2893   80.7432   33.2782 H   0  0  0  0  0  0  0  0  0  0  0  0
   60.9927   82.5017   33.5512 H   0  0  0  0  0  0  0  0  0  0  0  0
   59.3929   80.4923   32.7132 H   0  0  0  0  0  0  0  0  0  0  0  0
   57.4606   79.4312   31.5876 H   0  0  0  0  0  0  0  0  0  0  0  0
   56.8435   80.8607   27.2612 H   0  0  0  0  0  0  0  0  0  0  0  0
   54.9087   79.7879   26.1155 H   0  0  0  0  0  0  0  0  0  0  0  0
  1  2  1  0
  2  3  1  0
  3  4  2  0
  3  5  1  0
  5  6  1  0
  6  7  2  0
  7  8  1  0
  8  9  1  0
  9 10  1  0
 10 11  2  0
 11 12  1  0
 12 13  1  0
 13 14  1  0
 14 15  1  0
 15 16  1  0
 16 17  1  0
 16 18  1  0
 18 19  1  0
 12 20  2  0
 20 21  1  0
  8 22  2  0
 22 23  1  0
 23  5  2  0
 21  9  2  0
 19 13  1  0
  1 24  1  0
  1 25  1  0
  1 26  1  0
  2 27  1  0
  6 28  1  0
  7 29  1  0
 10 30  1  0
 11 31  1  0
 14 32  1  0
 14 33  1  0
 15 34  1  0
 15 35  1  0
 17 36  1  0
 17 37  1  0
 17 38  1  0
 18 39  1  0
 18 40  1  0
 19 41  1  0
 19 42  1  0
 20 43  1  0
 21 44  1  0
 22 45  1  0
 23 46  1  0
M  END
>  <meeko>  (1) 
{"is_sidechain": false}

>  <smiles>  (1) 
CNC(=O)c1ccc(-c2ccc(N3CCN(C)CC3)cc2)cc1

>  <vina_score>  (1) 
-7.646

>  <job_id>  (1) 
3348f2864fd053ea

$$$$
