
     RDKit          3D

 69 73  0  0  0  0  0  0  0  0999 V2000
   51.9930   83.1900   22.6290 C   0  0  0  0  0  0  0  0  0  0  0  0
   52.4570   82.0490   23.4590 C   0  0  0  0  0  0  0  0  0  0  0  0
   52.4360   80.7980   23.0470 N   0  0  0  0  0  0  0  0  0  0  0  0
   52.9460   80.0440   24.0700 C   0  0  0  0  0  0  0  0  0  0  0  0
   53.1620   78.6610   24.1650 C   0  0  0  0  0  0  0  0  0  0  0  0
   52.8510   77.8400   23.1510 F   0  0  0  0  0  0  0  0  0  0  0  0
   53.7100   78.1210   25.3310 C   0  0  0  0  0  0  0  0  0  0  0  0
   54.0590   78.9280   26.4290 C   0  0  0  0  0  0  0  0  0  0  0  0
   54.6480   78.3150   27.6400 C   0  0  0  0  0  0  0  0  0  0  0  0
   55.8940   78.7500   27.9560 N   0  0  0  0  0  0  0  0  0  0  0  0
   56.5020   78.2460   29.0440 C   0  0  0  0  0  0  0  0  0  0  0  0
   57.7660   78.6500   29.4210 N   0  0  0  0  0  0  0  0  0  0  0  0
   58.3480   79.8600   29.7530 C   0  0  0  0  0  0  0  0  0  0  0  0
   58.9310   80.7270   28.8390 C   0  0  0  0  0  0  0  0  0  0  0  0
   59.4920   81.9250   29.2820 C   0  0  0  0  0  0  0  0  0  0  0  0
   59.4520   82.2480   30.6370 C   0  0  0  0  0  0  0  0  0  0  0  0
   58.8610   81.3270   31.4970 C   0  0  0  0  0  0  0  0  0  0  0  0
   58.3120   80.1600   31.0710 N   0  0  0  0  0  0  0  0  0  0  0  0
   58.7490   81.6250   32.9680 C   0  0  0  0  0  0  0  0  0  0  0  0
   59.6730   82.7680   33.3980 C   0  0  0  0  0  0  0  0  0  0  0  0
   59.6530   83.9320   32.4950 N   0  0  0  0  0  0  0  0  0  0  0  0
   58.3530   84.6300   32.4270 C   0  0  0  0  0  0  0  0  0  0  0  0
   58.4360   86.1000   32.8690 C   0  0  0  0  0  0  0  0  0  0  0  0
   57.7170   87.0360   31.8840 C   0  0  0  0  0  0  0  0  0  0  0  0
   57.8110   86.5930   30.5100 N   0  0  0  0  0  0  0  0  0  0  0  0
   56.2870   87.1720   32.1430 N   0  0  0  0  0  0  0  0  0  0  0  0
   55.6580   87.7310   30.9520 O   0  0  0  0  0  0  0  0  0  0  0  0
   60.1000   83.5070   31.1530 C   0  0  0  0  0  0  0  0  0  0  0  0
   55.9320   77.3180   29.8310 N   0  0  0  0  0  0  0  0  0  0  0  0
   54.6960   76.8960   29.4940 C   0  0  0  0  0  0  0  0  0  0  0  0
   54.0060   77.3650   28.4070 C   0  0  0  0  0  0  0  0  0  0  0  0
   52.7850   76.8930   28.1240 F   0  0  0  0  0  0  0  0  0  0  0  0
   53.8460   80.3220   26.3310 C   0  0  0  0  0  0  0  0  0  0  0  0
   53.2850   80.8510   25.1510 C   0  0  0  0  0  0  0  0  0  0  0  0
   52.9530   82.1340   24.7470 N   0  0  0  0  0  0  0  0  0  0  0  0
   53.1420   83.3290   25.5690 C   0  0  0  0  0  0  0  0  0  0  0  0
   54.6040   83.7290   25.7700 C   0  0  0  0  0  0  0  0  0  0  0  0
   52.3860   83.2330   26.8940 C   0  0  0  0  0  0  0  0  0  0  0  0
   51.6601   84.0085   23.2842 H   0  0  0  0  0  0  0  0  0  0  0  0
   52.8196   83.5416   21.9941 H   0  0  0  0  0  0  0  0  0  0  0  0
   51.1556   82.8649   21.9941 H   0  0  0  0  0  0  0  0  0  0  0  0
   53.8731   77.0349   25.3922 H   0  0  0  0  0  0  0  0  0  0  0  0
   58.4270   77.8890   29.4440 H   0  0  0  0  0  0  0  0  0  0  0  0
   58.9506   80.4704   27.7695 H   0  0  0  0  0  0  0  0  0  0  0  0
   59.9642   82.6121   28.5644 H   0  0  0  0  0  0  0  0  0  0  0  0
   57.7097   81.9051   33.1947 H   0  0  0  0  0  0  0  0  0  0  0  0
   59.0493   80.7219   33.5196 H   0  0  0  0  0  0  0  0  0  0  0  0
   59.3648   83.1028   34.3995 H   0  0  0  0  0  0  0  0  0  0  0  0
   60.6984   82.3702   33.3789 H   0  0  0  0  0  0  0  0  0  0  0  0
   57.9910   84.5961   31.3888 H   0  0  0  0  0  0  0  0  0  0  0  0
   57.6679   84.1171   33.1180 H   0  0  0  0  0  0  0  0  0  0  0  0
   57.9693   86.2003   33.8600 H   0  0  0  0  0  0  0  0  0  0  0  0
   59.4973   86.3875   32.8996 H   0  0  0  0  0  0  0  0  0  0  0  0
   58.2375   87.9929   32.0372 H   0  0  0  0  0  0  0  0  0  0  0  0
   58.7120   86.9240   30.1690 H   0  0  0  0  0  0  0  0  0  0  0  0
   57.1240   87.1350   29.9910 H   0  0  0  0  0  0  0  0  0  0  0  0
   55.8790   86.2330   32.1760 H   0  0  0  0  0  0  0  0  0  0  0  0
   55.9120   88.6730   31.0190 H   0  0  0  0  0  0  0  0  0  0  0  0
   59.8783   84.3199   30.4458 H   0  0  0  0  0  0  0  0  0  0  0  0
   61.1742   83.2870   31.2412 H   0  0  0  0  0  0  0  0  0  0  0  0
   54.2160   76.1342   30.1259 H   0  0  0  0  0  0  0  0  0  0  0  0
   54.1149   80.9861   27.1657 H   0  0  0  0  0  0  0  0  0  0  0  0
   52.6996   84.1518   24.9883 H   0  0  0  0  0  0  0  0  0  0  0  0
   54.8231   83.7889   26.8463 H   0  0  0  0  0  0  0  0  0  0  0  0
   55.2574   82.9766   25.3042 H   0  0  0  0  0  0  0  0  0  0  0  0
   54.7833   84.7092   25.3042 H   0  0  0  0  0  0  0  0  0  0  0  0
   53.0965   83.3232   27.7289 H   0  0  0  0  0  0  0  0  0  0  0  0
   51.6456   84.0443   26.9533 H   0  0  0  0  0  0  0  0  0  0  0  0
   51.8719   82.2624   26.9533 H   0  0  0  0  0  0  0  0  0  0  0  0
  1  2  1  0
  2  3  2  0
  3  4  1  0
  4  5  2  0
  5  6  1  0
  5  7  1  0
  7  8  2  0
  8  9  1  0
  9 10  2  0
 10 11  1  0
 11 12  1  0
 12 13  1  0
 13 14  1  0
 14 15  2  0
 15 16  1  0
 16 17  2  0
 17 18  1  0
 17 19  1  0
 19 20  1  0
 20 21  1  0
 21 22  1  0
 22 23  1  0
 23 24  1  0
 24 25  1  0
 24 26  1  0
 26 27  1  0
 21 28  1  0
 11 29  2  0
 29 30  1  0
 30 31  2  0
 31 32  1  0
  8 33  1  0
 33 34  2  0
 34 35  1  0
 35 36  1  0
 36 37  1  0
 36 38  1  0
 35  2  1  0
 34  4  1  0
 31  9  1  0
 18 13  2  0
 28 16  1  0
  1 39  1  0
  1 40  1  0
  1 41  1  0
  7 42  1  0
 12 43  1  0
 14 44  1  0
 15 45  1  0
 19 46  1  0
 19 47  1  0
 20 48  1  0
 20 49  1  0
 22 50  1  0
 22 51  1  0
 23 52  1  0
 23 53  1  0
 24 54  1  0
 25 55  1  0
 25 56  1  0
 26 57  1  0
 27 58  1  0
 28 59  1  0
 28 60  1  0
 30 61  1  0
 33 62  1  0
 36 63  1  0
 37 64  1  0
 37 65  1  0
 37 66  1  0
 38 67  1  0
 38 68  1  0
 38 69  1  0
M  END
>  <meeko>  (1) 
{"is_sidechain": false}

>  <smiles>  (1) 
Cc1nc2c(F)cc(-c3nc(Nc4ccc5c(n4)CCN(CCC(N)NO)C5)ncc3F)cc2n1C(C)C

>  <vina_score>  (1) 
-8.735

>  <job_id>  (1) 
335a7a5dd02393d3

$$$$
