
     RDKit          3D

 40 42  0  0  0  0  0  0  0  0999 V2000
   52.5950   76.9660   28.0200 C   0  0  0  0  0  0  0  0  0  0  0  0
   53.8900   77.7230   28.0280 C   0  0  0  0  0  0  0  0  0  0  0  0
   54.8510   77.4750   29.0130 C   0  0  0  0  0  0  0  0  0  0  0  0
   56.0450   78.1960   29.0260 C   0  0  0  0  0  0  0  0  0  0  0  0
   56.2770   79.1840   28.0680 C   0  0  0  0  0  0  0  0  0  0  0  0
   55.3110   79.4830   27.1020 C   0  0  0  0  0  0  0  0  0  0  0  0
   55.5210   80.4270   26.0710 N   0  0  0  0  0  0  0  0  0  0  0  0
   55.1880   81.8140   26.0860 C   0  0  0  0  0  0  0  0  0  0  0  0
   55.9210   82.7340   26.8470 C   0  0  0  0  0  0  0  0  0  0  0  0
   55.5600   84.0800   26.8670 C   0  0  0  0  0  0  0  0  0  0  0  0
   54.4490   84.5110   26.1460 C   0  0  0  0  0  0  0  0  0  0  0  0
   53.6870   83.5960   25.4120 C   0  0  0  0  0  0  0  0  0  0  0  0
   54.0330   82.2380   25.3750 C   0  0  0  0  0  0  0  0  0  0  0  0
   53.2720   81.2670   24.6910 N   0  0  0  0  0  0  0  0  0  0  0  0
   51.9580   81.0050   25.3370 C   0  0  0  0  0  0  0  0  0  0  0  0
   50.7970   81.3330   24.3840 C   0  0  0  0  0  0  0  0  0  0  0  0
   50.8470   80.6070   23.1460 O   0  0  0  0  0  0  0  0  0  0  0  0
   52.1860   80.3440   22.6930 C   0  0  0  0  0  0  0  0  0  0  0  0
   53.2130   81.3590   23.2180 C   0  0  0  0  0  0  0  0  0  0  0  0
   54.1310   78.7280   27.0800 C   0  0  0  0  0  0  0  0  0  0  0  0
   52.2737   76.7782   29.0551 H   0  0  0  0  0  0  0  0  0  0  0  0
   51.8276   77.5577   27.4995 H   0  0  0  0  0  0  0  0  0  0  0  0
   52.7341   76.0070   27.4995 H   0  0  0  0  0  0  0  0  0  0  0  0
   54.6648   76.7089   29.7801 H   0  0  0  0  0  0  0  0  0  0  0  0
   56.8051   77.9855   29.7927 H   0  0  0  0  0  0  0  0  0  0  0  0
   57.2299   79.7334   28.0728 H   0  0  0  0  0  0  0  0  0  0  0  0
   56.4980   80.3840   25.7660 H   0  0  0  0  0  0  0  0  0  0  0  0
   56.7871   82.3918   27.4325 H   0  0  0  0  0  0  0  0  0  0  0  0
   56.1514   84.8005   27.4511 H   0  0  0  0  0  0  0  0  0  0  0  0
   54.1697   85.5749   26.1538 H   0  0  0  0  0  0  0  0  0  0  0  0
   52.8047   83.9466   24.8565 H   0  0  0  0  0  0  0  0  0  0  0  0
   51.9019   79.9433   25.6194 H   0  0  0  0  0  0  0  0  0  0  0  0
   51.8719   81.6469   26.2262 H   0  0  0  0  0  0  0  0  0  0  0  0
   49.8515   81.0907   24.8913 H   0  0  0  0  0  0  0  0  0  0  0  0
   50.8761   82.4015   24.1349 H   0  0  0  0  0  0  0  0  0  0  0  0
   52.4799   79.3406   23.0348 H   0  0  0  0  0  0  0  0  0  0  0  0
   52.1810   80.4218   21.5958 H   0  0  0  0  0  0  0  0  0  0  0  0
   54.2031   81.1341   22.7947 H   0  0  0  0  0  0  0  0  0  0  0  0
   52.9153   82.3755   22.9212 H   0  0  0  0  0  0  0  0  0  0  0  0
   53.3781   78.9276   26.3032 H   0  0  0  0  0  0  0  0  0  0  0  0
  1  2  1  0
  2  3  2  0
  3  4  1  0
  4  5  2  0
  5  6  1  0
  6  7  1  0
  7  8  1  0
  8  9  2  0
  9 10  1  0
 10 11  2  0
 11 12  1  0
 12 13  2  0
 13 14  1  0
 14 15  1  0
 15 16  1  0
 16 17  1  0
 17 18  1  0
 18 19  1  0
  6 20  2  0
 20  2  1  0
 13  8  1  0
 19 14  1  0
  1 21  1  0
  1 22  1  0
  1 23  1  0
  3 24  1  0
  4 25  1  0
  5 26  1  0
  7 27  1  0
  9 28  1  0
 10 29  1  0
 11 30  1  0
 12 31  1  0
 15 32  1  0
 15 33  1  0
 16 34  1  0
 16 35  1  0
 18 36  1  0
 18 37  1  0
 19 38  1  0
 19 39  1  0
 20 40  1  0
M  END
>  <meeko>  (1) 
{"is_sidechain": false}

>  <smiles>  (1) 
Cc1cccc(Nc2ccccc2N2CCOCC2)c1

>  <vina_score>  (1) 
-7.221

>  <job_id>  (1) 
3379d6a88f8473b6

$$$$
