
     RDKit          3D

 34 35  0  0  0  0  0  0  0  0999 V2000
   53.8760   80.7940   25.4760 C   0  0  0  0  0  0  0  0  0  0  0  0
   54.8550   79.8690   25.9380 O   0  0  0  0  0  0  0  0  0  0  0  0
   54.4360   78.9090   26.8310 C   0  0  0  0  0  0  0  0  0  0  0  0
   53.2630   78.1630   26.7070 C   0  0  0  0  0  0  0  0  0  0  0  0
   52.9470   77.2180   27.6790 C   0  0  0  0  0  0  0  0  0  0  0  0
   51.8200   76.5050   27.5570 F   0  0  0  0  0  0  0  0  0  0  0  0
   53.7770   77.0020   28.7700 C   0  0  0  0  0  0  0  0  0  0  0  0
   54.9530   77.7420   28.9020 C   0  0  0  0  0  0  0  0  0  0  0  0
   55.2900   78.6970   27.9380 C   0  0  0  0  0  0  0  0  0  0  0  0
   56.4570   79.4820   28.0010 N   0  0  0  0  0  0  0  0  0  0  0  0
   57.7660   79.0840   28.0370 C   0  0  0  0  0  0  0  0  0  0  0  0
   58.1870   77.9370   28.0200 O   0  0  0  0  0  0  0  0  0  0  0  0
   58.5600   80.2260   28.0990 O   0  0  0  0  0  0  0  0  0  0  0  0
   58.7040   80.7690   29.3800 C   0  0  0  0  0  0  0  0  0  0  0  0
   59.0750   82.1070   29.4910 C   0  0  0  0  0  0  0  0  0  0  0  0
   59.2750   82.6550   30.7590 C   0  0  0  0  0  0  0  0  0  0  0  0
   59.1310   81.8620   31.9070 C   0  0  0  0  0  0  0  0  0  0  0  0
   59.3100   82.4630   33.2690 C   0  0  0  0  0  0  0  0  0  0  0  0
   58.7610   80.5160   31.7710 C   0  0  0  0  0  0  0  0  0  0  0  0
   58.5600   79.9620   30.5050 C   0  0  0  0  0  0  0  0  0  0  0  0
   53.3793   81.2633   26.3380 H   0  0  0  0  0  0  0  0  0  0  0  0
   54.3630   81.5695   24.8665 H   0  0  0  0  0  0  0  0  0  0  0  0
   53.1294   80.2638   24.8665 H   0  0  0  0  0  0  0  0  0  0  0  0
   52.5938   78.3205   25.8483 H   0  0  0  0  0  0  0  0  0  0  0  0
   53.5092   76.2507   29.5276 H   0  0  0  0  0  0  0  0  0  0  0  0
   55.6147   77.5739   29.7645 H   0  0  0  0  0  0  0  0  0  0  0  0
   56.3070   80.4840   28.0240 H   0  0  0  0  0  0  0  0  0  0  0  0
   59.2087   82.7242   28.5904 H   0  0  0  0  0  0  0  0  0  0  0  0
   59.5474   83.7161   30.8587 H   0  0  0  0  0  0  0  0  0  0  0  0
   59.0849   81.7071   34.0358 H   0  0  0  0  0  0  0  0  0  0  0  0
   60.3490   82.8050   33.3852 H   0  0  0  0  0  0  0  0  0  0  0  0
   58.6274   83.3178   33.3852 H   0  0  0  0  0  0  0  0  0  0  0  0
   58.6283   79.8926   32.6675 H   0  0  0  0  0  0  0  0  0  0  0  0
   58.2911   78.9007   30.3981 H   0  0  0  0  0  0  0  0  0  0  0  0
  1  2  1  0
  2  3  1  0
  3  4  1  0
  4  5  2  0
  5  6  1  0
  5  7  1  0
  7  8  2  0
  8  9  1  0
  9 10  1  0
 10 11  1  0
 11 12  2  0
 11 13  1  0
 13 14  1  0
 14 15  1  0
 15 16  2  0
 16 17  1  0
 17 18  1  0
 17 19  2  0
 19 20  1  0
  9  3  2  0
 20 14  2  0
  1 21  1  0
  1 22  1  0
  1 23  1  0
  4 24  1  0
  7 25  1  0
  8 26  1  0
 10 27  1  0
 15 28  1  0
 16 29  1  0
 18 30  1  0
 18 31  1  0
 18 32  1  0
 19 33  1  0
 20 34  1  0
M  END
>  <meeko>  (1) 
{"is_sidechain": false}

>  <smiles>  (1) 
COc1cc(F)ccc1NC(=O)Oc1ccc(C)cc1

>  <vina_score>  (1) 
-7.527

>  <job_id>  (1) 
33a28b83494029eb

$$$$
