
     RDKit          3D

 69 74  0  0  0  0  0  0  0  0999 V2000
   51.5330   82.1680   22.3700 C   0  0  0  0  0  0  0  0  0  0  0  0
   52.8490   82.0800   22.9940 N   0  0  0  0  0  0  0  0  0  0  0  0
   53.3100   80.6940   23.1490 C   0  0  0  0  0  0  0  0  0  0  0  0
   52.5900   79.9190   24.2570 C   0  0  0  0  0  0  0  0  0  0  0  0
   52.6500   80.6590   25.5950 C   0  0  0  0  0  0  0  0  0  0  0  0
   54.0010   80.6000   26.0660 O   0  0  0  0  0  0  0  0  0  0  0  0
   54.4360   79.2820   26.3950 C   0  0  0  0  0  0  0  0  0  0  0  0
   55.5250   79.3500   27.4260 C   0  0  0  0  0  0  0  0  0  0  0  0
   55.5120   78.5350   28.5550 C   0  0  0  0  0  0  0  0  0  0  0  0
   56.5700   78.5950   29.4620 C   0  0  0  0  0  0  0  0  0  0  0  0
   57.6400   79.4590   29.2280 C   0  0  0  0  0  0  0  0  0  0  0  0
   58.6800   79.4820   30.1730 N   0  0  0  0  0  0  0  0  0  0  0  0
   58.9370   80.4950   31.0940 C   0  0  0  0  0  0  0  0  0  0  0  0
   58.0560   80.8070   32.0560 N   0  0  0  0  0  0  0  0  0  0  0  0
   58.3800   81.8160   32.8850 C   0  0  0  0  0  0  0  0  0  0  0  0
   59.5390   82.5390   32.7760 C   0  0  0  0  0  0  0  0  0  0  0  0
   59.7940   83.5430   33.6260 F   0  0  0  0  0  0  0  0  0  0  0  0
   60.3890   82.1860   31.7460 C   0  0  0  0  0  0  0  0  0  0  0  0
   61.6770   82.8660   31.4760 C   0  0  0  0  0  0  0  0  0  0  0  0
   62.8440   82.1070   31.2680 C   0  0  0  0  0  0  0  0  0  0  0  0
   64.0840   82.7060   31.0200 C   0  0  0  0  0  0  0  0  0  0  0  0
   65.1580   81.9250   30.8320 F   0  0  0  0  0  0  0  0  0  0  0  0
   64.1860   84.1040   30.9720 C   0  0  0  0  0  0  0  0  0  0  0  0
   65.2890   84.9220   30.7580 N   0  0  0  0  0  0  0  0  0  0  0  0
   64.8050   86.1320   30.8360 C   0  0  0  0  0  0  0  0  0  0  0  0
   63.4610   86.1330   31.0630 N   0  0  0  0  0  0  0  0  0  0  0  0
   63.0220   84.8580   31.1770 C   0  0  0  0  0  0  0  0  0  0  0  0
   61.7730   84.2760   31.4370 C   0  0  0  0  0  0  0  0  0  0  0  0
   62.8940   87.4770   31.1630 C   0  0  0  0  0  0  0  0  0  0  0  0
   61.6270   87.6550   30.3240 C   0  0  0  0  0  0  0  0  0  0  0  0
   62.6340   87.8420   32.6280 C   0  0  0  0  0  0  0  0  0  0  0  0
   64.0610   88.3340   30.5720 C   0  0  0  0  0  0  0  0  0  0  0  0
   65.3510   87.4990   30.7590 C   0  0  0  0  0  0  0  0  0  0  0  0
   60.0820   81.1740   30.8930 N   0  0  0  0  0  0  0  0  0  0  0  0
   57.6670   80.2450   28.1330 N   0  0  0  0  0  0  0  0  0  0  0  0
   56.6290   80.1760   27.2650 C   0  0  0  0  0  0  0  0  0  0  0  0
   52.1850   82.1070   25.4190 C   0  0  0  0  0  0  0  0  0  0  0  0
   52.9220   82.8000   24.2700 C   0  0  0  0  0  0  0  0  0  0  0  0
   50.7598   82.2197   23.1507 H   0  0  0  0  0  0  0  0  0  0  0  0
   51.4835   83.0715   21.7445 H   0  0  0  0  0  0  0  0  0  0  0  0
   51.3636   81.2792   21.7445 H   0  0  0  0  0  0  0  0  0  0  0  0
   53.1485   80.1671   22.1970 H   0  0  0  0  0  0  0  0  0  0  0  0
   54.3720   80.7412   23.4316 H   0  0  0  0  0  0  0  0  0  0  0  0
   51.5364   79.7841   23.9710 H   0  0  0  0  0  0  0  0  0  0  0  0
   53.0924   78.9481   24.3789 H   0  0  0  0  0  0  0  0  0  0  0  0
   51.9807   80.1898   26.3311 H   0  0  0  0  0  0  0  0  0  0  0  0
   53.5884   78.7069   26.7961 H   0  0  0  0  0  0  0  0  0  0  0  0
   54.8219   78.7898   25.4901 H   0  0  0  0  0  0  0  0  0  0  0  0
   54.6716   77.8473   28.7307 H   0  0  0  0  0  0  0  0  0  0  0  0
   56.5607   77.9615   30.3612 H   0  0  0  0  0  0  0  0  0  0  0  0
   58.7460   78.6070   30.6730 H   0  0  0  0  0  0  0  0  0  0  0  0
   57.6783   82.0739   33.6919 H   0  0  0  0  0  0  0  0  0  0  0  0
   62.7792   81.0094   31.3014 H   0  0  0  0  0  0  0  0  0  0  0  0
   60.8859   84.9038   31.6072 H   0  0  0  0  0  0  0  0  0  0  0  0
   60.7602   87.7768   30.9902 H   0  0  0  0  0  0  0  0  0  0  0  0
   61.7299   88.5475   29.6893 H   0  0  0  0  0  0  0  0  0  0  0  0
   61.4800   86.7687   29.6893 H   0  0  0  0  0  0  0  0  0  0  0  0
   63.1472   87.1216   33.2820 H   0  0  0  0  0  0  0  0  0  0  0  0
   63.0156   88.8543   32.8269 H   0  0  0  0  0  0  0  0  0  0  0  0
   61.5526   87.8122   32.8269 H   0  0  0  0  0  0  0  0  0  0  0  0
   63.8861   88.5307   29.5040 H   0  0  0  0  0  0  0  0  0  0  0  0
   64.1381   89.3076   31.0780 H   0  0  0  0  0  0  0  0  0  0  0  0
   66.0314   87.6127   29.9022 H   0  0  0  0  0  0  0  0  0  0  0  0
   65.9534   87.7921   31.6315 H   0  0  0  0  0  0  0  0  0  0  0  0
   56.6634   80.8179   26.3724 H   0  0  0  0  0  0  0  0  0  0  0  0
   51.1059   82.1119   25.2054 H   0  0  0  0  0  0  0  0  0  0  0  0
   52.4042   82.6540   26.3478 H   0  0  0  0  0  0  0  0  0  0  0  0
   52.4824   83.7985   24.1294 H   0  0  0  0  0  0  0  0  0  0  0  0
   53.9844   82.8408   24.5521 H   0  0  0  0  0  0  0  0  0  0  0  0
  1  2  1  0
  2  3  1  0
  3  4  1  0
  4  5  1  0
  5  6  1  0
  6  7  1  0
  7  8  1  0
  8  9  2  0
  9 10  1  0
 10 11  2  0
 11 12  1  0
 12 13  1  0
 13 14  2  0
 14 15  1  0
 15 16  2  0
 16 17  1  0
 16 18  1  0
 18 19  1  0
 19 20  2  0
 20 21  1  0
 21 22  1  0
 21 23  2  0
 23 24  1  0
 24 25  2  0
 25 26  1  0
 26 27  1  0
 27 28  2  0
 26 29  1  0
 29 30  1  0
 29 31  1  0
 29 32  1  0
 32 33  1  0
 18 34  2  0
 11 35  1  0
 35 36  2  0
  5 37  1  0
 37 38  1  0
 38  2  1  0
 36  8  1  0
 34 13  1  0
 28 19  1  0
 27 23  1  0
 33 25  1  0
  1 39  1  0
  1 40  1  0
  1 41  1  0
  3 42  1  0
  3 43  1  0
  4 44  1  0
  4 45  1  0
  5 46  1  0
  7 47  1  0
  7 48  1  0
  9 49  1  0
 10 50  1  0
 12 51  1  0
 15 52  1  0
 20 53  1  0
 28 54  1  0
 30 55  1  0
 30 56  1  0
 30 57  1  0
 31 58  1  0
 31 59  1  0
 31 60  1  0
 32 61  1  0
 32 62  1  0
 33 63  1  0
 33 64  1  0
 36 65  1  0
 37 66  1  0
 37 67  1  0
 38 68  1  0
 38 69  1  0
M  END
>  <meeko>  (1) 
{"is_sidechain": false}

>  <smiles>  (1) 
CN1CCC(OCc2ccc(Nc3ncc(F)c(-c4cc(F)c5nc6n(c5c4)C(C)(C)CC6)n3)nc2)CC1

>  <vina_score>  (1) 
-8.375

>  <job_id>  (1) 
34b613b23e45133a

$$$$
