
     RDKit          3D

 49 50  0  0  0  0  0  0  0  0999 V2000
   61.9290   82.4210   32.9790 C   0  0  0  0  0  0  0  0  0  0  0  0
   61.1940   82.4160   31.6210 C   0  0  0  0  0  0  0  0  0  0  0  0
   61.1070   83.8770   31.1350 C   0  0  0  0  0  0  0  0  0  0  0  0
   62.0800   81.7320   30.6450 N   0  0  0  0  0  0  0  0  0  0  0  0
   59.7730   81.7000   31.7140 C   0  0  0  0  0  0  0  0  0  0  0  0
   58.5810   82.6720   31.5970 C   0  0  0  0  0  0  0  0  0  0  0  0
   59.5920   80.9750   33.0720 C   0  0  0  0  0  0  0  0  0  0  0  0
   59.6830   80.5960   30.7570 O   0  0  0  0  0  0  0  0  0  0  0  0
   59.2570   80.7380   29.4820 C   0  0  0  0  0  0  0  0  0  0  0  0
   59.8360   81.3890   28.6210 O   0  0  0  0  0  0  0  0  0  0  0  0
   58.0730   80.0600   29.2520 N   0  0  0  0  0  0  0  0  0  0  0  0
   57.2760   79.4820   30.3370 C   0  0  0  0  0  0  0  0  0  0  0  0
   56.4140   78.2920   29.8750 C   0  0  0  0  0  0  0  0  0  0  0  0
   55.6390   78.6430   28.6590 N   0  0  0  0  0  0  0  0  0  0  0  0
   54.6420   77.7000   28.3500 C   0  0  0  0  0  0  0  0  0  0  0  0
   53.5900   78.0700   27.4940 C   0  0  0  0  0  0  0  0  0  0  0  0
   52.5740   77.1740   27.1460 C   0  0  0  0  0  0  0  0  0  0  0  0
   52.5920   75.8770   27.6450 C   0  0  0  0  0  0  0  0  0  0  0  0
   53.6270   75.4800   28.4850 C   0  0  0  0  0  0  0  0  0  0  0  0
   54.6420   76.3810   28.8280 C   0  0  0  0  0  0  0  0  0  0  0  0
   56.5120   79.1060   27.5570 C   0  0  0  0  0  0  0  0  0  0  0  0
   57.3510   80.3130   28.0060 C   0  0  0  0  0  0  0  0  0  0  0  0
   61.1915   82.4160   33.7951 H   0  0  0  0  0  0  0  0  0  0  0  0
   62.5657   81.5272   33.0546 H   0  0  0  0  0  0  0  0  0  0  0  0
   62.5534   83.3234   33.0546 H   0  0  0  0  0  0  0  0  0  0  0  0
   61.0669   84.5506   32.0037 H   0  0  0  0  0  0  0  0  0  0  0  0
   61.9926   84.1146   30.5273 H   0  0  0  0  0  0  0  0  0  0  0  0
   60.1995   84.0079   30.5273 H   0  0  0  0  0  0  0  0  0  0  0  0
   61.6900   80.8250   30.3940 H   0  0  0  0  0  0  0  0  0  0  0  0
   62.9840   81.5380   31.0740 H   0  0  0  0  0  0  0  0  0  0  0  0
   58.2367   82.9528   32.6033 H   0  0  0  0  0  0  0  0  0  0  0  0
   58.8957   83.5743   31.0521 H   0  0  0  0  0  0  0  0  0  0  0  0
   57.7605   82.1821   31.0521 H   0  0  0  0  0  0  0  0  0  0  0  0
   59.7693   81.6851   33.8932 H   0  0  0  0  0  0  0  0  0  0  0  0
   58.5677   80.5803   33.1433 H   0  0  0  0  0  0  0  0  0  0  0  0
   60.3105   80.1452   33.1433 H   0  0  0  0  0  0  0  0  0  0  0  0
   57.9575   79.1362   31.1282 H   0  0  0  0  0  0  0  0  0  0  0  0
   56.5935   80.2645   30.7001 H   0  0  0  0  0  0  0  0  0  0  0  0
   57.0695   77.4376   29.6507 H   0  0  0  0  0  0  0  0  0  0  0  0
   55.7097   78.0336   30.6795 H   0  0  0  0  0  0  0  0  0  0  0  0
   53.5653   79.0916   27.0870 H   0  0  0  0  0  0  0  0  0  0  0  0
   51.7614   77.4956   26.4780 H   0  0  0  0  0  0  0  0  0  0  0  0
   51.7934   75.1695   27.3775 H   0  0  0  0  0  0  0  0  0  0  0  0
   53.6481   74.4541   28.8813 H   0  0  0  0  0  0  0  0  0  0  0  0
   55.4574   76.0475   29.4867 H   0  0  0  0  0  0  0  0  0  0  0  0
   57.1847   78.2879   27.2599 H   0  0  0  0  0  0  0  0  0  0  0  0
   55.8824   79.4069   26.7067 H   0  0  0  0  0  0  0  0  0  0  0  0
   58.0805   80.5487   27.2171 H   0  0  0  0  0  0  0  0  0  0  0  0
   56.6620   81.1520   28.1832 H   0  0  0  0  0  0  0  0  0  0  0  0
  1  2  1  0
  2  3  1  0
  2  4  1  0
  2  5  1  0
  5  6  1  0
  5  7  1  0
  5  8  1  0
  8  9  1  0
  9 10  2  0
  9 11  1  0
 11 12  1  0
 12 13  1  0
 13 14  1  0
 14 15  1  0
 15 16  2  0
 16 17  1  0
 17 18  2  0
 18 19  1  0
 19 20  2  0
 14 21  1  0
 21 22  1  0
 22 11  1  0
 20 15  1  0
  1 23  1  0
  1 24  1  0
  1 25  1  0
  3 26  1  0
  3 27  1  0
  3 28  1  0
  4 29  1  0
  4 30  1  0
  6 31  1  0
  6 32  1  0
  6 33  1  0
  7 34  1  0
  7 35  1  0
  7 36  1  0
 12 37  1  0
 12 38  1  0
 13 39  1  0
 13 40  1  0
 16 41  1  0
 17 42  1  0
 18 43  1  0
 19 44  1  0
 20 45  1  0
 21 46  1  0
 21 47  1  0
 22 48  1  0
 22 49  1  0
M  END
>  <meeko>  (1) 
{"is_sidechain": false}

>  <smiles>  (1) 
CC(C)(N)C(C)(C)OC(=O)N1CCN(c2ccccc2)CC1

>  <vina_score>  (1) 
-6.626

>  <job_id>  (1) 
34fb8a834fbd6e09

$$$$
