
     RDKit          3D

 33 34  0  0  0  0  0  0  0  0999 V2000
   52.4250   75.8060   27.6410 C   0  0  0  0  0  0  0  0  0  0  0  0
   52.4840   77.1580   28.0830 O   0  0  0  0  0  0  0  0  0  0  0  0
   53.7160   77.7500   28.1000 C   0  0  0  0  0  0  0  0  0  0  0  0
   54.1240   78.8220   27.3070 C   0  0  0  0  0  0  0  0  0  0  0  0
   55.4220   79.3320   27.4290 C   0  0  0  0  0  0  0  0  0  0  0  0
   56.3250   78.7660   28.3370 C   0  0  0  0  0  0  0  0  0  0  0  0
   57.6960   79.3440   28.4230 C   0  0  0  0  0  0  0  0  0  0  0  0
   58.6410   78.6790   28.0200 O   0  0  0  0  0  0  0  0  0  0  0  0
   57.7680   80.6000   28.9870 N   0  0  0  0  0  0  0  0  0  0  0  0
   58.9300   81.2680   29.2810 C   0  0  0  0  0  0  0  0  0  0  0  0
   60.0550   81.0050   28.8870 O   0  0  0  0  0  0  0  0  0  0  0  0
   58.5990   82.3640   30.0720 O   0  0  0  0  0  0  0  0  0  0  0  0
   59.0070   82.2170   31.3980 C   0  0  0  0  0  0  0  0  0  0  0  0
   58.1850   81.5330   32.2910 C   0  0  0  0  0  0  0  0  0  0  0  0
   58.6150   81.3570   33.6080 C   0  0  0  0  0  0  0  0  0  0  0  0
   59.8590   81.8500   34.0150 C   0  0  0  0  0  0  0  0  0  0  0  0
   60.6820   82.5190   33.1060 C   0  0  0  0  0  0  0  0  0  0  0  0
   60.2530   82.6960   31.7960 C   0  0  0  0  0  0  0  0  0  0  0  0
   61.0510   83.3140   30.9150 F   0  0  0  0  0  0  0  0  0  0  0  0
   55.9120   77.7020   29.1460 C   0  0  0  0  0  0  0  0  0  0  0  0
   54.6140   77.1980   29.0190 C   0  0  0  0  0  0  0  0  0  0  0  0
   52.3958   75.1361   28.5130 H   0  0  0  0  0  0  0  0  0  0  0  0
   51.5195   75.6578   27.0342 H   0  0  0  0  0  0  0  0  0  0  0  0
   53.3141   75.5795   27.0342 H   0  0  0  0  0  0  0  0  0  0  0  0
   53.4247   79.2677   26.5843 H   0  0  0  0  0  0  0  0  0  0  0  0
   55.7347   80.1836   26.8070 H   0  0  0  0  0  0  0  0  0  0  0  0
   56.9550   80.9790   29.4430 H   0  0  0  0  0  0  0  0  0  0  0  0
   57.2121   81.1376   31.9637 H   0  0  0  0  0  0  0  0  0  0  0  0
   57.9728   80.8286   34.3280 H   0  0  0  0  0  0  0  0  0  0  0  0
   60.1904   81.7104   35.0546 H   0  0  0  0  0  0  0  0  0  0  0  0
   61.6624   82.9029   33.4247 H   0  0  0  0  0  0  0  0  0  0  0  0
   56.6054   77.2638   29.8789 H   0  0  0  0  0  0  0  0  0  0  0  0
   54.2948   76.3558   29.6506 H   0  0  0  0  0  0  0  0  0  0  0  0
  1  2  1  0
  2  3  1  0
  3  4  1  0
  4  5  2  0
  5  6  1  0
  6  7  1  0
  7  8  2  0
  7  9  1  0
  9 10  1  0
 10 11  2  0
 10 12  1  0
 12 13  1  0
 13 14  2  0
 14 15  1  0
 15 16  2  0
 16 17  1  0
 17 18  2  0
 18 19  1  0
  6 20  2  0
 20 21  1  0
 21  3  2  0
 18 13  1  0
  1 22  1  0
  1 23  1  0
  1 24  1  0
  4 25  1  0
  5 26  1  0
  9 27  1  0
 14 28  1  0
 15 29  1  0
 16 30  1  0
 17 31  1  0
 20 32  1  0
 21 33  1  0
M  END
>  <meeko>  (1) 
{"is_sidechain": false}

>  <smiles>  (1) 
COc1ccc(C(=O)NC(=O)Oc2ccccc2F)cc1

>  <vina_score>  (1) 
-7.584

>  <job_id>  (1) 
354e765c3e81ac44

$$$$
