
     RDKit          3D

 41 42  0  0  0  0  0  0  0  0999 V2000
   52.8160   81.6020   23.9410 C   0  0  0  0  0  0  0  0  0  0  0  0
   53.2150   80.3920   24.7060 C   0  0  0  0  0  0  0  0  0  0  0  0
   52.9350   79.1590   24.3430 N   0  0  0  0  0  0  0  0  0  0  0  0
   53.4450   78.3590   25.3200 C   0  0  0  0  0  0  0  0  0  0  0  0
   54.0660   79.0980   26.3090 C   0  0  0  0  0  0  0  0  0  0  0  0
   54.7300   78.6080   27.5080 C   0  0  0  0  0  0  0  0  0  0  0  0
   56.0590   78.9610   27.7650 C   0  0  0  0  0  0  0  0  0  0  0  0
   56.7020   78.4740   28.9030 C   0  0  0  0  0  0  0  0  0  0  0  0
   58.0220   78.8950   29.1370 N   0  0  0  0  0  0  0  0  0  0  0  0
   58.1920   80.2540   29.6660 C   0  0  0  0  0  0  0  0  0  0  0  0
   59.3100   80.9780   28.9130 C   0  0  0  0  0  0  0  0  0  0  0  0
   58.5600   80.1550   31.1490 C   0  0  0  0  0  0  0  0  0  0  0  0
   56.0710   77.6600   29.7730 N   0  0  0  0  0  0  0  0  0  0  0  0
   54.7920   77.3070   29.4990 C   0  0  0  0  0  0  0  0  0  0  0  0
   54.0950   77.7460   28.3920 C   0  0  0  0  0  0  0  0  0  0  0  0
   52.8310   77.3460   28.1940 F   0  0  0  0  0  0  0  0  0  0  0  0
   53.9280   80.4120   25.8970 N   0  0  0  0  0  0  0  0  0  0  0  0
   54.4090   81.6300   26.5500 C   0  0  0  0  0  0  0  0  0  0  0  0
   53.3100   82.6360   26.8950 C   0  0  0  0  0  0  0  0  0  0  0  0
   55.5570   82.2830   25.7840 C   0  0  0  0  0  0  0  0  0  0  0  0
   52.5504   82.4075   24.6414 H   0  0  0  0  0  0  0  0  0  0  0  0
   53.6541   81.9283   23.3077 H   0  0  0  0  0  0  0  0  0  0  0  0
   51.9482   81.3658   23.3077 H   0  0  0  0  0  0  0  0  0  0  0  0
   53.3718   77.2614   25.3217 H   0  0  0  0  0  0  0  0  0  0  0  0
   56.5968   79.6224   27.0698 H   0  0  0  0  0  0  0  0  0  0  0  0
   58.4760   78.1980   29.7240 H   0  0  0  0  0  0  0  0  0  0  0  0
   57.2570   80.8193   29.5391 H   0  0  0  0  0  0  0  0  0  0  0  0
   60.0063   81.4289   29.6354 H   0  0  0  0  0  0  0  0  0  0  0  0
   59.8519   80.2589   28.2811 H   0  0  0  0  0  0  0  0  0  0  0  0
   58.8755   81.7667   28.2811 H   0  0  0  0  0  0  0  0  0  0  0  0
   57.6782   80.3922   31.7622 H   0  0  0  0  0  0  0  0  0  0  0  0
   58.8998   79.1335   31.3751 H   0  0  0  0  0  0  0  0  0  0  0  0
   59.3664   80.8681   31.3751 H   0  0  0  0  0  0  0  0  0  0  0  0
   54.2795   76.6313   30.1996 H   0  0  0  0  0  0  0  0  0  0  0  0
   54.8051   81.2906   27.5185 H   0  0  0  0  0  0  0  0  0  0  0  0
   53.2191   82.7192   27.9881 H   0  0  0  0  0  0  0  0  0  0  0  0
   53.5667   83.6187   26.4725 H   0  0  0  0  0  0  0  0  0  0  0  0
   52.3538   82.2937   26.4725 H   0  0  0  0  0  0  0  0  0  0  0  0
   56.2850   82.6971   26.4972 H   0  0  0  0  0  0  0  0  0  0  0  0
   56.0506   81.5305   25.1515 H   0  0  0  0  0  0  0  0  0  0  0  0
   55.1625   83.0919   25.1515 H   0  0  0  0  0  0  0  0  0  0  0  0
  1  2  1  0
  2  3  2  0
  3  4  1  0
  4  5  2  0
  5  6  1  0
  6  7  1  0
  7  8  2  0
  8  9  1  0
  9 10  1  0
 10 11  1  0
 10 12  1  0
  8 13  1  0
 13 14  2  0
 14 15  1  0
 15 16  1  0
  5 17  1  0
 17 18  1  0
 18 19  1  0
 18 20  1  0
 17  2  1  0
 15  6  2  0
  1 21  1  0
  1 22  1  0
  1 23  1  0
  4 24  1  0
  7 25  1  0
  9 26  1  0
 10 27  1  0
 11 28  1  0
 11 29  1  0
 11 30  1  0
 12 31  1  0
 12 32  1  0
 12 33  1  0
 14 34  1  0
 18 35  1  0
 19 36  1  0
 19 37  1  0
 19 38  1  0
 20 39  1  0
 20 40  1  0
 20 41  1  0
M  END
>  <meeko>  (1) 
{"is_sidechain": false}

>  <smiles>  (1) 
Cc1ncc(-c2cc(NC(C)C)ncc2F)n1C(C)C

>  <vina_score>  (1) 
-7.697

>  <job_id>  (1) 
355f981ece2ac57c

$$$$
