
     RDKit          3D

 49 51  0  0  0  0  0  0  0  0999 V2000
   52.4620   75.4050   27.5020 C   0  0  0  0  0  0  0  0  0  0  0  0
   53.2450   76.6560   27.7630 C   0  0  0  0  0  0  0  0  0  0  0  0
   52.9000   77.8360   27.1340 C   0  0  0  0  0  0  0  0  0  0  0  0
   53.6670   78.9500   27.4300 C   0  0  0  0  0  0  0  0  0  0  0  0
   53.3490   80.2940   26.7930 C   0  0  0  0  0  0  0  0  0  0  0  0
   54.2810   80.7090   25.7220 N   0  0  0  0  0  0  0  0  0  0  0  0
   55.5550   81.2120   26.2520 C   0  0  0  0  0  0  0  0  0  0  0  0
   55.9430   82.6550   25.8950 C   0  0  0  0  0  0  0  0  0  0  0  0
   55.1380   83.7620   26.5930 C   0  0  0  0  0  0  0  0  0  0  0  0
   53.8760   84.2160   25.8630 C   0  0  0  0  0  0  0  0  0  0  0  0
   52.6390   83.4870   26.1390 N   0  0  0  0  0  0  0  0  0  0  0  0
   52.3690   82.3340   25.2830 C   0  0  0  0  0  0  0  0  0  0  0  0
   53.6160   81.5920   24.7550 C   0  0  0  0  0  0  0  0  0  0  0  0
   54.7070   78.8940   28.2900 N   0  0  0  0  0  0  0  0  0  0  0  0
   54.9600   77.7070   28.8740 C   0  0  0  0  0  0  0  0  0  0  0  0
   56.0830   77.6480   29.8800 C   0  0  0  0  0  0  0  0  0  0  0  0
   57.0710   78.7850   29.7530 C   0  0  0  0  0  0  0  0  0  0  0  0
   57.4140   79.5610   30.8690 C   0  0  0  0  0  0  0  0  0  0  0  0
   58.3210   80.6160   30.7450 C   0  0  0  0  0  0  0  0  0  0  0  0
   58.8860   80.9090   29.5050 C   0  0  0  0  0  0  0  0  0  0  0  0
   58.5420   80.1530   28.3860 C   0  0  0  0  0  0  0  0  0  0  0  0
   57.6380   79.0980   28.5080 C   0  0  0  0  0  0  0  0  0  0  0  0
   54.2710   76.5730   28.6310 N   0  0  0  0  0  0  0  0  0  0  0  0
   52.1746   74.9459   28.4594 H   0  0  0  0  0  0  0  0  0  0  0  0
   51.5570   75.6520   26.9275 H   0  0  0  0  0  0  0  0  0  0  0  0
   53.0797   74.6990   26.9275 H   0  0  0  0  0  0  0  0  0  0  0  0
   52.0556   77.8884   26.4309 H   0  0  0  0  0  0  0  0  0  0  0  0
   52.3376   80.2386   26.3640 H   0  0  0  0  0  0  0  0  0  0  0  0
   53.4412   81.0447   27.5917 H   0  0  0  0  0  0  0  0  0  0  0  0
   55.5071   81.1439   27.3488 H   0  0  0  0  0  0  0  0  0  0  0  0
   56.3259   80.5858   25.7791 H   0  0  0  0  0  0  0  0  0  0  0  0
   57.0023   82.7932   26.1571 H   0  0  0  0  0  0  0  0  0  0  0  0
   55.7266   82.7631   24.8219 H   0  0  0  0  0  0  0  0  0  0  0  0
   54.8409   83.3910   27.5850 H   0  0  0  0  0  0  0  0  0  0  0  0
   55.7993   84.6403   26.6283 H   0  0  0  0  0  0  0  0  0  0  0  0
   53.7035   85.2699   26.1268 H   0  0  0  0  0  0  0  0  0  0  0  0
   54.0829   84.0258   24.7995 H   0  0  0  0  0  0  0  0  0  0  0  0
   52.6390   83.1790   27.1110 H   0  0  0  0  0  0  0  0  0  0  0  0
   51.7670   81.6168   25.8603 H   0  0  0  0  0  0  0  0  0  0  0  0
   51.8549   82.7307   24.3951 H   0  0  0  0  0  0  0  0  0  0  0  0
   53.3078   80.9810   23.8938 H   0  0  0  0  0  0  0  0  0  0  0  0
   54.3491   82.3727   24.5039 H   0  0  0  0  0  0  0  0  0  0  0  0
   55.6472   77.6774   30.8895 H   0  0  0  0  0  0  0  0  0  0  0  0
   56.6372   76.7170   29.6899 H   0  0  0  0  0  0  0  0  0  0  0  0
   56.9660   79.3376   31.8485 H   0  0  0  0  0  0  0  0  0  0  0  0
   58.5896   81.2162   31.6268 H   0  0  0  0  0  0  0  0  0  0  0  0
   59.6036   81.7372   29.4096 H   0  0  0  0  0  0  0  0  0  0  0  0
   58.9835   80.3884   27.4064 H   0  0  0  0  0  0  0  0  0  0  0  0
   57.3672   78.5064   27.6211 H   0  0  0  0  0  0  0  0  0  0  0  0
  1  2  1  0
  2  3  2  0
  3  4  1  0
  4  5  1  0
  5  6  1  0
  6  7  1  0
  7  8  1  0
  8  9  1  0
  9 10  1  0
 10 11  1  0
 11 12  1  0
 12 13  1  0
  4 14  2  0
 14 15  1  0
 15 16  1  0
 16 17  1  0
 17 18  2  0
 18 19  1  0
 19 20  2  0
 20 21  1  0
 21 22  2  0
 15 23  2  0
 23  2  1  0
 13  6  1  0
 22 17  1  0
  1 24  1  0
  1 25  1  0
  1 26  1  0
  3 27  1  0
  5 28  1  0
  5 29  1  0
  7 30  1  0
  7 31  1  0
  8 32  1  0
  8 33  1  0
  9 34  1  0
  9 35  1  0
 10 36  1  0
 10 37  1  0
 11 38  1  0
 12 39  1  0
 12 40  1  0
 13 41  1  0
 13 42  1  0
 16 43  1  0
 16 44  1  0
 18 45  1  0
 19 46  1  0
 20 47  1  0
 21 48  1  0
 22 49  1  0
M  END
>  <meeko>  (1) 
{"is_sidechain": false}

>  <smiles>  (1) 
Cc1cc(CN2CCCCNCC2)nc(Cc2ccccc2)n1

>  <vina_score>  (1) 
-6.256

>  <job_id>  (1) 
35d367bd113aa5c7

$$$$
