
     RDKit          3D

 46 48  0  0  0  0  0  0  0  0999 V2000
   62.6850   80.5950   37.1780 C   0  0  0  0  0  0  0  0  0  0  0  0
   62.6650   80.7580   35.7270 N   0  0  0  0  0  0  0  0  0  0  0  0
   62.6190   82.1830   35.3340 C   0  0  0  0  0  0  0  0  0  0  0  0
   61.2730   82.6670   34.7650 C   0  0  0  0  0  0  0  0  0  0  0  0
   60.8110   81.8370   33.6530 N   0  0  0  0  0  0  0  0  0  0  0  0
   59.8620   82.3650   32.7880 C   0  0  0  0  0  0  0  0  0  0  0  0
   59.3360   83.4640   32.9540 O   0  0  0  0  0  0  0  0  0  0  0  0
   59.4530   81.5760   31.6040 C   0  0  0  0  0  0  0  0  0  0  0  0
   58.4580   80.6070   31.7500 C   0  0  0  0  0  0  0  0  0  0  0  0
   58.0440   79.8650   30.6430 C   0  0  0  0  0  0  0  0  0  0  0  0
   58.6040   80.1000   29.3770 C   0  0  0  0  0  0  0  0  0  0  0  0
   58.1530   79.2860   28.1850 C   0  0  0  0  0  0  0  0  0  0  0  0
   56.8760   79.8000   27.7130 N   0  0  0  0  0  0  0  0  0  0  0  0
   55.7180   79.0330   27.8630 C   0  0  0  0  0  0  0  0  0  0  0  0
   55.5970   77.9810   28.7790 C   0  0  0  0  0  0  0  0  0  0  0  0
   54.4370   77.1990   28.8360 C   0  0  0  0  0  0  0  0  0  0  0  0
   53.3920   77.4440   27.9520 C   0  0  0  0  0  0  0  0  0  0  0  0
   51.9680   76.4830   28.0200 Cl  0  0  0  0  0  0  0  0  0  0  0  0
   53.5020   78.4550   27.0060 C   0  0  0  0  0  0  0  0  0  0  0  0
   54.6640   79.2330   26.9560 C   0  0  0  0  0  0  0  0  0  0  0  0
   59.5940   81.0870   29.2380 C   0  0  0  0  0  0  0  0  0  0  0  0
   60.0110   81.8290   30.3450 C   0  0  0  0  0  0  0  0  0  0  0  0
   61.2100   80.4230   33.6990 C   0  0  0  0  0  0  0  0  0  0  0  0
   61.5660   79.9740   35.1290 C   0  0  0  0  0  0  0  0  0  0  0  0
   62.5645   81.5769   37.6590 H   0  0  0  0  0  0  0  0  0  0  0  0
   61.8613   79.9333   37.4840 H   0  0  0  0  0  0  0  0  0  0  0  0
   63.6442   80.1520   37.4840 H   0  0  0  0  0  0  0  0  0  0  0  0
   62.8489   82.7881   36.2234 H   0  0  0  0  0  0  0  0  0  0  0  0
   63.3509   82.2973   34.5208 H   0  0  0  0  0  0  0  0  0  0  0  0
   60.5192   82.6376   35.5656 H   0  0  0  0  0  0  0  0  0  0  0  0
   61.4157   83.6896   34.3856 H   0  0  0  0  0  0  0  0  0  0  0  0
   58.0018   80.4291   32.7350 H   0  0  0  0  0  0  0  0  0  0  0  0
   57.2728   79.0899   30.7632 H   0  0  0  0  0  0  0  0  0  0  0  0
   58.9007   79.3634   27.3819 H   0  0  0  0  0  0  0  0  0  0  0  0
   58.0428   78.2312   28.4769 H   0  0  0  0  0  0  0  0  0  0  0  0
   56.7300   80.7730   27.9710 H   0  0  0  0  0  0  0  0  0  0  0  0
   56.4283   77.7650   29.4663 H   0  0  0  0  0  0  0  0  0  0  0  0
   54.3525   76.3921   29.5789 H   0  0  0  0  0  0  0  0  0  0  0  0
   52.6799   78.6431   26.2998 H   0  0  0  0  0  0  0  0  0  0  0  0
   54.7541   80.0177   26.1904 H   0  0  0  0  0  0  0  0  0  0  0  0
   60.0431   81.2763   28.2519 H   0  0  0  0  0  0  0  0  0  0  0  0
   60.7762   82.6106   30.2282 H   0  0  0  0  0  0  0  0  0  0  0  0
   60.3777   79.8062   33.3292 H   0  0  0  0  0  0  0  0  0  0  0  0
   62.1040   80.2999   33.0700 H   0  0  0  0  0  0  0  0  0  0  0  0
   60.6734   80.0833   35.7624 H   0  0  0  0  0  0  0  0  0  0  0  0
   61.9041   78.9290   35.0694 H   0  0  0  0  0  0  0  0  0  0  0  0
  1  2  1  0
  2  3  1  0
  3  4  1  0
  4  5  1  0
  5  6  1  0
  6  7  2  0
  6  8  1  0
  8  9  1  0
  9 10  2  0
 10 11  1  0
 11 12  1  0
 12 13  1  0
 13 14  1  0
 14 15  1  0
 15 16  2  0
 16 17  1  0
 17 18  1  0
 17 19  2  0
 19 20  1  0
 11 21  2  0
 21 22  1  0
  5 23  1  0
 23 24  1  0
 24  2  1  0
 22  8  2  0
 20 14  2  0
  1 25  1  0
  1 26  1  0
  1 27  1  0
  3 28  1  0
  3 29  1  0
  4 30  1  0
  4 31  1  0
  9 32  1  0
 10 33  1  0
 12 34  1  0
 12 35  1  0
 13 36  1  0
 15 37  1  0
 16 38  1  0
 19 39  1  0
 20 40  1  0
 21 41  1  0
 22 42  1  0
 23 43  1  0
 23 44  1  0
 24 45  1  0
 24 46  1  0
M  END
>  <meeko>  (1) 
{"is_sidechain": false}

>  <smiles>  (1) 
CN1CCN(C(=O)c2ccc(CNc3ccc(Cl)cc3)cc2)CC1

>  <vina_score>  (1) 
-8.163

>  <job_id>  (1) 
35f81226da78ee00

$$$$
