
     RDKit          3D

 50 52  0  0  0  0  0  0  0  0999 V2000
   52.4080   76.1370   27.3680 C   0  0  0  0  0  0  0  0  0  0  0  0
   52.6710   77.2150   28.2590 O   0  0  0  0  0  0  0  0  0  0  0  0
   53.6800   78.0740   27.9000 C   0  0  0  0  0  0  0  0  0  0  0  0
   53.5700   78.9980   26.8500 C   0  0  0  0  0  0  0  0  0  0  0  0
   54.6070   79.8850   26.5090 C   0  0  0  0  0  0  0  0  0  0  0  0
   54.4750   80.7920   25.4560 N   0  0  0  0  0  0  0  0  0  0  0  0
   55.2740   82.0180   25.3940 C   0  0  0  0  0  0  0  0  0  0  0  0
   54.7020   83.1300   26.2700 C   0  0  0  0  0  0  0  0  0  0  0  0
   53.3100   83.6360   25.8710 C   0  0  0  0  0  0  0  0  0  0  0  0
   52.2550   82.6280   25.8300 N   0  0  0  0  0  0  0  0  0  0  0  0
   52.2530   81.7680   24.6370 C   0  0  0  0  0  0  0  0  0  0  0  0
   53.3300   80.6580   24.5240 C   0  0  0  0  0  0  0  0  0  0  0  0
   55.7750   79.7910   27.2840 C   0  0  0  0  0  0  0  0  0  0  0  0
   55.9370   78.8750   28.3450 C   0  0  0  0  0  0  0  0  0  0  0  0
   57.1690   78.9150   29.0290 N   0  0  0  0  0  0  0  0  0  0  0  0
   58.3500   79.3450   28.2460 C   0  0  0  0  0  0  0  0  0  0  0  0
   58.9900   80.6200   28.8210 C   0  0  0  0  0  0  0  0  0  0  0  0
   59.3600   80.5080   30.2050 O   0  0  0  0  0  0  0  0  0  0  0  0
   58.4620   79.6860   30.9690 C   0  0  0  0  0  0  0  0  0  0  0  0
   57.0600   79.5560   30.3530 C   0  0  0  0  0  0  0  0  0  0  0  0
   54.8840   77.9830   28.6160 C   0  0  0  0  0  0  0  0  0  0  0  0
   55.0530   77.0660   29.6290 O   0  0  0  0  0  0  0  0  0  0  0  0
   55.5300   75.8120   29.1450 C   0  0  0  0  0  0  0  0  0  0  0  0
   52.1863   75.2284   27.9471 H   0  0  0  0  0  0  0  0  0  0  0  0
   51.5446   76.3875   26.7341 H   0  0  0  0  0  0  0  0  0  0  0  0
   53.2897   75.9618   26.7341 H   0  0  0  0  0  0  0  0  0  0  0  0
   52.6356   79.0301   26.2704 H   0  0  0  0  0  0  0  0  0  0  0  0
   56.2957   81.7914   25.7329 H   0  0  0  0  0  0  0  0  0  0  0  0
   55.2643   82.3726   24.3528 H   0  0  0  0  0  0  0  0  0  0  0  0
   54.6423   82.7520   27.3013 H   0  0  0  0  0  0  0  0  0  0  0  0
   55.3805   83.9875   26.1502 H   0  0  0  0  0  0  0  0  0  0  0  0
   53.0111   84.4080   26.5954 H   0  0  0  0  0  0  0  0  0  0  0  0
   53.4107   84.0050   24.8396 H   0  0  0  0  0  0  0  0  0  0  0  0
   51.3420   83.0680   25.9350 H   0  0  0  0  0  0  0  0  0  0  0  0
   51.2713   81.2736   24.5946 H   0  0  0  0  0  0  0  0  0  0  0  0
   52.4855   82.4544   23.8095 H   0  0  0  0  0  0  0  0  0  0  0  0
   52.8437   79.6909   24.7193 H   0  0  0  0  0  0  0  0  0  0  0  0
   53.7498   80.7422   23.5108 H   0  0  0  0  0  0  0  0  0  0  0  0
   56.6093   80.4689   27.0508 H   0  0  0  0  0  0  0  0  0  0  0  0
   59.0965   78.5371   28.2568 H   0  0  0  0  0  0  0  0  0  0  0  0
   58.0162   79.5650   27.2212 H   0  0  0  0  0  0  0  0  0  0  0  0
   59.8941   80.8481   28.2374 H   0  0  0  0  0  0  0  0  0  0  0  0
   58.2345   81.4167   28.7541 H   0  0  0  0  0  0  0  0  0  0  0  0
   58.8988   78.6798   31.0513 H   0  0  0  0  0  0  0  0  0  0  0  0
   58.3370   80.1735   31.9471 H   0  0  0  0  0  0  0  0  0  0  0  0
   56.4259   78.9409   31.0084 H   0  0  0  0  0  0  0  0  0  0  0  0
   56.6103   80.5540   30.2443 H   0  0  0  0  0  0  0  0  0  0  0  0
   55.7777   75.1607   29.9961 H   0  0  0  0  0  0  0  0  0  0  0  0
   54.7506   75.3348   28.5328 H   0  0  0  0  0  0  0  0  0  0  0  0
   56.4295   75.9734   28.5328 H   0  0  0  0  0  0  0  0  0  0  0  0
  1  2  1  0
  2  3  1  0
  3  4  2  0
  4  5  1  0
  5  6  1  0
  6  7  1  0
  7  8  1  0
  8  9  1  0
  9 10  1  0
 10 11  1  0
 11 12  1  0
  5 13  2  0
 13 14  1  0
 14 15  1  0
 15 16  1  0
 16 17  1  0
 17 18  1  0
 18 19  1  0
 19 20  1  0
 14 21  2  0
 21 22  1  0
 22 23  1  0
 21  3  1  0
 12  6  1  0
 20 15  1  0
  1 24  1  0
  1 25  1  0
  1 26  1  0
  4 27  1  0
  7 28  1  0
  7 29  1  0
  8 30  1  0
  8 31  1  0
  9 32  1  0
  9 33  1  0
 10 34  1  0
 11 35  1  0
 11 36  1  0
 12 37  1  0
 12 38  1  0
 13 39  1  0
 16 40  1  0
 16 41  1  0
 17 42  1  0
 17 43  1  0
 19 44  1  0
 19 45  1  0
 20 46  1  0
 20 47  1  0
 23 48  1  0
 23 49  1  0
 23 50  1  0
M  END
>  <meeko>  (1) 
{"is_sidechain": false}

>  <smiles>  (1) 
COc1cc(N2CCCNCC2)cc(N2CCOCC2)c1OC

>  <vina_score>  (1) 
-5.261

>  <job_id>  (1) 
3600d319e58e16d1

$$$$
