
     RDKit          3D

 59 63  0  0  0  0  0  0  0  0999 V2000
   61.6290   79.8980   36.3380 C   0  0  0  0  0  0  0  0  0  0  0  0
   60.2820   79.8710   35.8710 O   0  0  0  0  0  0  0  0  0  0  0  0
   60.0220   81.1370   35.3360 N   0  0  0  0  0  0  0  0  0  0  0  0
   60.2640   81.3650   33.9600 C   0  0  0  0  0  0  0  0  0  0  0  0
   61.1410   82.3630   33.5280 C   0  0  0  0  0  0  0  0  0  0  0  0
   61.3170   82.6530   32.1690 C   0  0  0  0  0  0  0  0  0  0  0  0
   60.5670   81.9180   31.2470 C   0  0  0  0  0  0  0  0  0  0  0  0
   60.5220   82.0080   29.8730 N   0  0  0  0  0  0  0  0  0  0  0  0
   59.6300   81.1010   29.3610 C   0  0  0  0  0  0  0  0  0  0  0  0
   59.3950   80.9830   28.0560 O   0  0  0  0  0  0  0  0  0  0  0  0
   59.1010   80.4000   30.4240 C   0  0  0  0  0  0  0  0  0  0  0  0
   58.1900   79.4080   30.2540 N   0  0  0  0  0  0  0  0  0  0  0  0
   57.2000   79.4600   29.3160 N   0  0  0  0  0  0  0  0  0  0  0  0
   56.2480   78.4360   29.1260 C   0  0  0  0  0  0  0  0  0  0  0  0
   56.1570   77.3420   29.9930 C   0  0  0  0  0  0  0  0  0  0  0  0
   55.1850   76.3450   29.8340 C   0  0  0  0  0  0  0  0  0  0  0  0
   54.2810   76.4900   28.7770 C   0  0  0  0  0  0  0  0  0  0  0  0
   53.2370   75.6830   28.3830 N   0  0  0  0  0  0  0  0  0  0  0  0
   52.6020   76.2180   27.2950 C   0  0  0  0  0  0  0  0  0  0  0  0
   51.5610   75.5890   26.7620 O   0  0  0  0  0  0  0  0  0  0  0  0
   53.2510   77.3920   26.9790 C   0  0  0  0  0  0  0  0  0  0  0  0
   52.9710   78.2990   25.9440 N   0  0  0  0  0  0  0  0  0  0  0  0
   53.2250   79.4910   26.2220 N   0  0  0  0  0  0  0  0  0  0  0  0
   52.9180   80.3090   25.1230 C   0  0  0  0  0  0  0  0  0  0  0  0
   52.9020   79.7700   23.8310 C   0  0  0  0  0  0  0  0  0  0  0  0
   52.5740   80.5680   22.7310 C   0  0  0  0  0  0  0  0  0  0  0  0
   52.2610   81.9160   22.9320 C   0  0  0  0  0  0  0  0  0  0  0  0
   51.8350   82.9240   21.5350 S   0  0  0  0  0  0  0  0  0  0  0  0
   50.4740   82.1290   20.9470 N   0  0  0  0  0  0  0  0  0  0  0  0
   52.8530   82.7580   20.5230 O   0  0  0  0  0  0  0  0  0  0  0  0
   51.4240   84.2200   22.0190 O   0  0  0  0  0  0  0  0  0  0  0  0
   52.2490   82.4640   24.2170 C   0  0  0  0  0  0  0  0  0  0  0  0
   52.5790   81.6570   25.3080 C   0  0  0  0  0  0  0  0  0  0  0  0
   54.3150   77.5780   27.9040 C   0  0  0  0  0  0  0  0  0  0  0  0
   55.3060   78.5660   28.0920 C   0  0  0  0  0  0  0  0  0  0  0  0
   59.6680   80.9180   31.6270 C   0  0  0  0  0  0  0  0  0  0  0  0
   59.5030   80.6650   33.0080 C   0  0  0  0  0  0  0  0  0  0  0  0
   61.6358   79.8981   37.4380 H   0  0  0  0  0  0  0  0  0  0  0  0
   62.1632   79.0104   35.9681 H   0  0  0  0  0  0  0  0  0  0  0  0
   62.1272   80.8063   35.9681 H   0  0  0  0  0  0  0  0  0  0  0  0
   59.1050   81.4860   35.6120 H   0  0  0  0  0  0  0  0  0  0  0  0
   61.7087   82.9366   34.2754 H   0  0  0  0  0  0  0  0  0  0  0  0
   62.0206   83.4316   31.8392 H   0  0  0  0  0  0  0  0  0  0  0  0
   61.0720   82.6590   29.3360 H   0  0  0  0  0  0  0  0  0  0  0  0
   60.1440   81.3400   27.5520 H   0  0  0  0  0  0  0  0  0  0  0  0
   57.9640   78.8520   31.0810 H   0  0  0  0  0  0  0  0  0  0  0  0
   57.4080   80.0030   28.4800 H   0  0  0  0  0  0  0  0  0  0  0  0
   56.8710   77.2617   30.8259 H   0  0  0  0  0  0  0  0  0  0  0  0
   55.1351   75.4820   30.5142 H   0  0  0  0  0  0  0  0  0  0  0  0
   52.9640   74.8200   28.8300 H   0  0  0  0  0  0  0  0  0  0  0  0
   51.8430   74.6600   26.6540 H   0  0  0  0  0  0  0  0  0  0  0  0
   53.1498   78.7090   23.6800 H   0  0  0  0  0  0  0  0  0  0  0  0
   52.5623   80.1399   21.7178 H   0  0  0  0  0  0  0  0  0  0  0  0
   50.3160   82.4140   19.9790 H   0  0  0  0  0  0  0  0  0  0  0  0
   50.5210   81.1160   21.0440 H   0  0  0  0  0  0  0  0  0  0  0  0
   51.9823   83.5205   24.3680 H   0  0  0  0  0  0  0  0  0  0  0  0
   52.5729   82.0829   26.3222 H   0  0  0  0  0  0  0  0  0  0  0  0
   55.3406   79.4409   27.4262 H   0  0  0  0  0  0  0  0  0  0  0  0
   58.7721   79.9132   33.3407 H   0  0  0  0  0  0  0  0  0  0  0  0
  1  2  1  0
  2  3  1  0
  3  4  1  0
  4  5  2  0
  5  6  1  0
  6  7  2  0
  7  8  1  0
  8  9  1  0
  9 10  1  0
  9 11  2  0
 11 12  1  0
 12 13  1  0
 13 14  1  0
 14 15  2  0
 15 16  1  0
 16 17  2  0
 17 18  1  0
 18 19  1  0
 19 20  1  0
 19 21  2  0
 21 22  1  0
 22 23  2  3
 23 24  1  0
 24 25  1  0
 25 26  2  0
 26 27  1  0
 27 28  1  0
 28 29  1  0
 28 30  2  0
 28 31  2  0
 27 32  2  0
 32 33  1  0
 21 34  1  0
 34 35  2  0
 11 36  1  0
 36 37  2  0
 37  4  1  0
 36  7  1  0
 35 14  1  0
 34 17  1  0
 33 24  2  0
  1 38  1  0
  1 39  1  0
  1 40  1  0
  3 41  1  0
  5 42  1  0
  6 43  1  0
  8 44  1  0
 10 45  1  0
 12 46  1  0
 13 47  1  0
 15 48  1  0
 16 49  1  0
 18 50  1  0
 20 51  1  0
 25 52  1  0
 26 53  1  0
 29 54  1  0
 29 55  1  0
 32 56  1  0
 33 57  1  0
 35 58  1  0
 37 59  1  0
M  END
>  <meeko>  (1) 
{"is_sidechain": false}

>  <smiles>  (1) 
CONc1ccc2[nH]c(O)c(NNc3ccc4[nH]c(O)c(N=Nc5ccc(S(N)(=O)=O)cc5)c4c3)c2c1

>  <vina_score>  (1) 
-9.355

>  <job_id>  (1) 
36093adc342d4af3

$$$$
