
     RDKit          3D

 45 47  0  0  0  0  0  0  0  0999 V2000
   52.1800   76.6200   27.9260 C   0  0  0  0  0  0  0  0  0  0  0  0
   53.3180   77.5740   27.7110 C   0  0  0  0  0  0  0  0  0  0  0  0
   53.3770   78.3580   26.5540 C   0  0  0  0  0  0  0  0  0  0  0  0
   54.4510   79.2240   26.3390 C   0  0  0  0  0  0  0  0  0  0  0  0
   55.4920   79.3100   27.2730 C   0  0  0  0  0  0  0  0  0  0  0  0
   56.6650   80.2320   27.0340 C   0  0  0  0  0  0  0  0  0  0  0  0
   57.8080   80.0920   28.0330 C   0  0  0  0  0  0  0  0  0  0  0  0
   58.5510   79.1150   27.9820 O   0  0  0  0  0  0  0  0  0  0  0  0
   57.8530   81.1010   28.9800 N   0  0  0  0  0  0  0  0  0  0  0  0
   58.7520   81.2380   30.0560 C   0  0  0  0  0  0  0  0  0  0  0  0
   58.4750   80.5200   31.2190 C   0  0  0  0  0  0  0  0  0  0  0  0
   59.3240   80.6010   32.3330 C   0  0  0  0  0  0  0  0  0  0  0  0
   60.4780   81.3960   32.3330 C   0  0  0  0  0  0  0  0  0  0  0  0
   61.3120   81.4770   33.4320 N   0  0  0  0  0  0  0  0  0  0  0  0
   61.7100   80.2880   34.2020 C   0  0  0  0  0  0  0  0  0  0  0  0
   63.0600   80.5370   34.8980 C   0  0  0  0  0  0  0  0  0  0  0  0
   63.0600   81.6540   35.7970 O   0  0  0  0  0  0  0  0  0  0  0  0
   62.1130   82.6700   35.4380 C   0  0  0  0  0  0  0  0  0  0  0  0
   61.8330   82.7610   33.9280 C   0  0  0  0  0  0  0  0  0  0  0  0
   60.7350   82.1070   31.1510 C   0  0  0  0  0  0  0  0  0  0  0  0
   59.8920   82.0330   30.0300 C   0  0  0  0  0  0  0  0  0  0  0  0
   55.4340   78.5200   28.4280 C   0  0  0  0  0  0  0  0  0  0  0  0
   54.3600   77.6530   28.6400 C   0  0  0  0  0  0  0  0  0  0  0  0
   52.0158   76.4823   29.0049 H   0  0  0  0  0  0  0  0  0  0  0  0
   51.2680   77.0274   27.4653 H   0  0  0  0  0  0  0  0  0  0  0  0
   52.4220   75.6509   27.4653 H   0  0  0  0  0  0  0  0  0  0  0  0
   52.5713   78.2918   25.8080 H   0  0  0  0  0  0  0  0  0  0  0  0
   54.4801   79.8430   25.4301 H   0  0  0  0  0  0  0  0  0  0  0  0
   57.0625   80.0252   26.0294 H   0  0  0  0  0  0  0  0  0  0  0  0
   56.2798   81.2559   27.1488 H   0  0  0  0  0  0  0  0  0  0  0  0
   57.2000   81.8670   28.8560 H   0  0  0  0  0  0  0  0  0  0  0  0
   57.5798   79.8823   31.2635 H   0  0  0  0  0  0  0  0  0  0  0  0
   59.0760   80.0222   33.2349 H   0  0  0  0  0  0  0  0  0  0  0  0
   60.9435   80.0726   34.9610 H   0  0  0  0  0  0  0  0  0  0  0  0
   61.8097   79.4324   33.5179 H   0  0  0  0  0  0  0  0  0  0  0  0
   63.3257   79.6348   35.4686 H   0  0  0  0  0  0  0  0  0  0  0  0
   63.7865   80.7689   34.1053 H   0  0  0  0  0  0  0  0  0  0  0  0
   61.1648   82.4562   35.9531 H   0  0  0  0  0  0  0  0  0  0  0  0
   62.5513   83.6331   35.7384 H   0  0  0  0  0  0  0  0  0  0  0  0
   61.0903   83.5510   33.7426 H   0  0  0  0  0  0  0  0  0  0  0  0
   62.7697   82.9970   33.4017 H   0  0  0  0  0  0  0  0  0  0  0  0
   61.6292   82.7456   31.1004 H   0  0  0  0  0  0  0  0  0  0  0  0
   60.1357   82.6084   29.1248 H   0  0  0  0  0  0  0  0  0  0  0  0
   56.2403   78.5829   29.1736 H   0  0  0  0  0  0  0  0  0  0  0  0
   54.3336   77.0276   29.5445 H   0  0  0  0  0  0  0  0  0  0  0  0
  1  2  1  0
  2  3  1  0
  3  4  2  0
  4  5  1  0
  5  6  1  0
  6  7  1  0
  7  8  2  0
  7  9  1  0
  9 10  1  0
 10 11  1  0
 11 12  2  0
 12 13  1  0
 13 14  1  0
 14 15  1  0
 15 16  1  0
 16 17  1  0
 17 18  1  0
 18 19  1  0
 13 20  2  0
 20 21  1  0
  5 22  2  0
 22 23  1  0
 23  2  2  0
 21 10  2  0
 19 14  1  0
  1 24  1  0
  1 25  1  0
  1 26  1  0
  3 27  1  0
  4 28  1  0
  6 29  1  0
  6 30  1  0
  9 31  1  0
 11 32  1  0
 12 33  1  0
 15 34  1  0
 15 35  1  0
 16 36  1  0
 16 37  1  0
 18 38  1  0
 18 39  1  0
 19 40  1  0
 19 41  1  0
 20 42  1  0
 21 43  1  0
 22 44  1  0
 23 45  1  0
M  END
>  <meeko>  (1) 
{"is_sidechain": false}

>  <smiles>  (1) 
Cc1ccc(CC(=O)Nc2ccc(N3CCOCC3)cc2)cc1

>  <vina_score>  (1) 
-7.641

>  <job_id>  (1) 
367947be4f7786d8

$$$$
