
     RDKit          3D

 41 43  0  0  0  0  0  0  0  0999 V2000
   54.7930   85.3500   26.7690 N   0  0  0  0  0  0  0  0  0  0  0  0
   55.5600   84.3910   26.1930 C   0  0  0  0  0  0  0  0  0  0  0  0
   56.6190   84.7090   25.6640 O   0  0  0  0  0  0  0  0  0  0  0  0
   55.0600   83.1100   26.2460 N   0  0  0  0  0  0  0  0  0  0  0  0
   54.0970   82.6770   27.2730 C   0  0  0  0  0  0  0  0  0  0  0  0
   53.3580   81.3790   26.8910 C   0  0  0  0  0  0  0  0  0  0  0  0
   54.2910   80.3160   26.4600 N   0  0  0  0  0  0  0  0  0  0  0  0
   54.8570   79.4410   27.3900 C   0  0  0  0  0  0  0  0  0  0  0  0
   54.0540   78.4860   28.0440 C   0  0  0  0  0  0  0  0  0  0  0  0
   54.5740   77.5880   28.9850 C   0  0  0  0  0  0  0  0  0  0  0  0
   55.9200   77.6350   29.3180 C   0  0  0  0  0  0  0  0  0  0  0  0
   56.7290   78.6020   28.7270 C   0  0  0  0  0  0  0  0  0  0  0  0
   58.0770   78.6960   28.9920 O   0  0  0  0  0  0  0  0  0  0  0  0
   58.5130   79.8140   29.6670 C   0  0  0  0  0  0  0  0  0  0  0  0
   59.3100   80.7960   29.0720 C   0  0  0  0  0  0  0  0  0  0  0  0
   59.7450   81.8860   29.8280 C   0  0  0  0  0  0  0  0  0  0  0  0
   59.3980   81.9840   31.1770 C   0  0  0  0  0  0  0  0  0  0  0  0
   58.6230   80.9910   31.7730 C   0  0  0  0  0  0  0  0  0  0  0  0
   58.1850   79.9000   31.0200 C   0  0  0  0  0  0  0  0  0  0  0  0
   56.2070   79.4820   27.7700 C   0  0  0  0  0  0  0  0  0  0  0  0
   55.1600   80.7740   25.3470 C   0  0  0  0  0  0  0  0  0  0  0  0
   55.9350   82.0440   25.7390 C   0  0  0  0  0  0  0  0  0  0  0  0
   53.8080   85.2980   26.5550 H   0  0  0  0  0  0  0  0  0  0  0  0
   55.1790   86.2740   26.6120 H   0  0  0  0  0  0  0  0  0  0  0  0
   54.6399   82.5080   28.2146 H   0  0  0  0  0  0  0  0  0  0  0  0
   53.3417   83.4703   27.3736 H   0  0  0  0  0  0  0  0  0  0  0  0
   52.7924   81.0223   27.7644 H   0  0  0  0  0  0  0  0  0  0  0  0
   52.6883   81.6051   26.0482 H   0  0  0  0  0  0  0  0  0  0  0  0
   52.9806   78.4440   27.8074 H   0  0  0  0  0  0  0  0  0  0  0  0
   53.9154   76.8458   29.4597 H   0  0  0  0  0  0  0  0  0  0  0  0
   56.3419   76.9188   30.0384 H   0  0  0  0  0  0  0  0  0  0  0  0
   59.5933   80.7103   28.0126 H   0  0  0  0  0  0  0  0  0  0  0  0
   60.3614   82.6681   29.3607 H   0  0  0  0  0  0  0  0  0  0  0  0
   59.7369   82.8462   31.7700 H   0  0  0  0  0  0  0  0  0  0  0  0
   58.3562   81.0668   32.8375 H   0  0  0  0  0  0  0  0  0  0  0  0
   57.5827   79.1101   31.4926 H   0  0  0  0  0  0  0  0  0  0  0  0
   56.8725   80.2240   27.3047 H   0  0  0  0  0  0  0  0  0  0  0  0
   55.8768   79.9773   25.0991 H   0  0  0  0  0  0  0  0  0  0  0  0
   54.5250   81.0050   24.4790 H   0  0  0  0  0  0  0  0  0  0  0  0
   56.6627   81.7843   26.5219 H   0  0  0  0  0  0  0  0  0  0  0  0
   56.4295   82.4238   24.8328 H   0  0  0  0  0  0  0  0  0  0  0  0
  1  2  1  0
  2  3  2  0
  2  4  1  0
  4  5  1  0
  5  6  1  0
  6  7  1  0
  7  8  1  0
  8  9  2  0
  9 10  1  0
 10 11  2  0
 11 12  1  0
 12 13  1  0
 13 14  1  0
 14 15  2  0
 15 16  1  0
 16 17  2  0
 17 18  1  0
 18 19  2  0
 12 20  2  0
  7 21  1  0
 21 22  1  0
 22  4  1  0
 20  8  1  0
 19 14  1  0
  1 23  1  0
  1 24  1  0
  5 25  1  0
  5 26  1  0
  6 27  1  0
  6 28  1  0
  9 29  1  0
 10 30  1  0
 11 31  1  0
 15 32  1  0
 16 33  1  0
 17 34  1  0
 18 35  1  0
 19 36  1  0
 20 37  1  0
 21 38  1  0
 21 39  1  0
 22 40  1  0
 22 41  1  0
M  END
>  <meeko>  (1) 
{"is_sidechain": false}

>  <smiles>  (1) 
NC(=O)N1CCN(c2cccc(Oc3ccccc3)c2)CC1

>  <vina_score>  (1) 
-7.544

>  <job_id>  (1) 
36892f3aed5af66c

$$$$
