
     RDKit          3D

 54 56  0  0  0  0  0  0  0  0999 V2000
   59.5990   84.3900   31.3930 C   0  0  0  0  0  0  0  0  0  0  0  0
   60.3040   83.0240   31.5510 C   0  0  0  0  0  0  0  0  0  0  0  0
   60.3610   82.7100   33.0610 C   0  0  0  0  0  0  0  0  0  0  0  0
   61.7420   83.1880   31.0110 C   0  0  0  0  0  0  0  0  0  0  0  0
   59.6030   81.8740   30.8100 C   0  0  0  0  0  0  0  0  0  0  0  0
   59.6570   81.7190   29.4190 C   0  0  0  0  0  0  0  0  0  0  0  0
   59.0040   80.6570   28.7700 C   0  0  0  0  0  0  0  0  0  0  0  0
   58.2710   79.7090   29.4810 C   0  0  0  0  0  0  0  0  0  0  0  0
   57.6070   78.6280   28.8950 N   0  0  0  0  0  0  0  0  0  0  0  0
   56.2680   78.3130   28.6770 C   0  0  0  0  0  0  0  0  0  0  0  0
   55.7190   77.1810   29.1380 N   0  0  0  0  0  0  0  0  0  0  0  0
   54.4230   76.9730   28.8600 C   0  0  0  0  0  0  0  0  0  0  0  0
   53.6510   77.8580   28.1540 C   0  0  0  0  0  0  0  0  0  0  0  0
   54.2830   79.0040   27.7330 C   0  0  0  0  0  0  0  0  0  0  0  0
   53.6330   79.9900   26.9890 N   0  0  0  0  0  0  0  0  0  0  0  0
   54.4010   81.2080   26.6900 C   0  0  0  0  0  0  0  0  0  0  0  0
   54.6060   81.3330   25.1750 C   0  0  0  0  0  0  0  0  0  0  0  0
   53.3100   81.5610   24.3920 C   0  0  0  0  0  0  0  0  0  0  0  0
   52.1940   82.2050   25.2150 C   0  0  0  0  0  0  0  0  0  0  0  0
   52.7050   83.1460   26.3060 C   0  0  0  0  0  0  0  0  0  0  0  0
   53.3100   84.3390   25.7020 N   0  0  0  0  0  0  0  0  0  0  0  0
   53.6740   82.4370   27.2700 C   0  0  0  0  0  0  0  0  0  0  0  0
   55.5810   79.2330   27.9780 N   0  0  0  0  0  0  0  0  0  0  0  0
   58.2170   79.8570   30.8720 C   0  0  0  0  0  0  0  0  0  0  0  0
   58.8650   80.9140   31.5240 C   0  0  0  0  0  0  0  0  0  0  0  0
   59.3831   84.8083   32.3872 H   0  0  0  0  0  0  0  0  0  0  0  0
   60.2541   85.0789   30.8397 H   0  0  0  0  0  0  0  0  0  0  0  0
   58.6579   84.2551   30.8397 H   0  0  0  0  0  0  0  0  0  0  0  0
   60.1933   83.6338   33.6342 H   0  0  0  0  0  0  0  0  0  0  0  0
   59.5815   81.9758   33.3125 H   0  0  0  0  0  0  0  0  0  0  0  0
   61.3489   82.2966   33.3125 H   0  0  0  0  0  0  0  0  0  0  0  0
   62.4435   83.2680   31.8545 H   0  0  0  0  0  0  0  0  0  0  0  0
   62.0050   82.3140   30.3970 H   0  0  0  0  0  0  0  0  0  0  0  0
   61.8015   84.0988   30.3970 H   0  0  0  0  0  0  0  0  0  0  0  0
   60.2244   82.4463   28.8198 H   0  0  0  0  0  0  0  0  0  0  0  0
   59.0732   80.5723   27.6755 H   0  0  0  0  0  0  0  0  0  0  0  0
   58.1760   77.8600   28.5740 H   0  0  0  0  0  0  0  0  0  0  0  0
   53.9558   76.0435   29.2175 H   0  0  0  0  0  0  0  0  0  0  0  0
   52.5903   77.6634   27.9373 H   0  0  0  0  0  0  0  0  0  0  0  0
   53.3190   79.5010   26.1500 H   0  0  0  0  0  0  0  0  0  0  0  0
   55.3935   81.1495   27.1607 H   0  0  0  0  0  0  0  0  0  0  0  0
   55.2796   82.1817   24.9852 H   0  0  0  0  0  0  0  0  0  0  0  0
   55.0251   80.3767   24.8288 H   0  0  0  0  0  0  0  0  0  0  0  0
   53.5326   82.2167   23.5373 H   0  0  0  0  0  0  0  0  0  0  0  0
   52.9464   80.5705   24.0810 H   0  0  0  0  0  0  0  0  0  0  0  0
   51.5472   82.7790   24.5352 H   0  0  0  0  0  0  0  0  0  0  0  0
   51.6525   81.3905   25.7183 H   0  0  0  0  0  0  0  0  0  0  0  0
   51.8452   83.4660   26.9129 H   0  0  0  0  0  0  0  0  0  0  0  0
   53.1000   85.1590   26.2680 H   0  0  0  0  0  0  0  0  0  0  0  0
   54.3240   84.2600   25.6680 H   0  0  0  0  0  0  0  0  0  0  0  0
   54.4361   83.1661   27.5825 H   0  0  0  0  0  0  0  0  0  0  0  0
   53.0564   82.0610   28.0989 H   0  0  0  0  0  0  0  0  0  0  0  0
   57.6517   79.1252   31.4678 H   0  0  0  0  0  0  0  0  0  0  0  0
   58.7948   80.9946   32.6188 H   0  0  0  0  0  0  0  0  0  0  0  0
  1  2  1  0
  2  3  1  0
  2  4  1  0
  2  5  1  0
  5  6  1  0
  6  7  2  0
  7  8  1  0
  8  9  1  0
  9 10  1  0
 10 11  2  0
 11 12  1  0
 12 13  2  0
 13 14  1  0
 14 15  1  0
 15 16  1  0
 16 17  1  0
 17 18  1  0
 18 19  1  0
 19 20  1  0
 20 21  1  0
 20 22  1  0
 14 23  2  0
  8 24  2  0
 24 25  1  0
 25  5  2  0
 23 10  1  0
 22 16  1  0
  1 26  1  0
  1 27  1  0
  1 28  1  0
  3 29  1  0
  3 30  1  0
  3 31  1  0
  4 32  1  0
  4 33  1  0
  4 34  1  0
  6 35  1  0
  7 36  1  0
  9 37  1  0
 12 38  1  0
 13 39  1  0
 15 40  1  0
 16 41  1  0
 17 42  1  0
 17 43  1  0
 18 44  1  0
 18 45  1  0
 19 46  1  0
 19 47  1  0
 20 48  1  0
 21 49  1  0
 21 50  1  0
 22 51  1  0
 22 52  1  0
 24 53  1  0
 25 54  1  0
M  END
>  <meeko>  (1) 
{"is_sidechain": false}

>  <smiles>  (1) 
CC(C)(C)c1ccc(Nc2nccc(NC3CCCC(N)C3)n2)cc1

>  <vina_score>  (1) 
-8.343

>  <job_id>  (1) 
369eee7282159472

$$$$
