
     RDKit          3D

 43 44  0  0  0  0  0  0  0  0999 V2000
   51.8100   75.1110   25.8270 C   0  0  0  0  0  0  0  0  0  0  0  0
   52.1850   76.0790   26.9520 C   0  0  0  0  0  0  0  0  0  0  0  0
   52.9920   75.3400   28.0200 C   0  0  0  0  0  0  0  0  0  0  0  0
   52.9430   77.2860   26.3720 C   0  0  0  0  0  0  0  0  0  0  0  0
   53.0840   78.4490   27.3610 C   0  0  0  0  0  0  0  0  0  0  0  0
   54.5320   78.8040   27.5980 C   0  0  0  0  0  0  0  0  0  0  0  0
   55.1100   79.9040   26.9490 C   0  0  0  0  0  0  0  0  0  0  0  0
   56.4540   80.2210   27.1540 C   0  0  0  0  0  0  0  0  0  0  0  0
   57.2240   79.4440   28.0210 C   0  0  0  0  0  0  0  0  0  0  0  0
   58.5610   79.6900   28.2340 O   0  0  0  0  0  0  0  0  0  0  0  0
   58.8990   80.3980   29.3660 C   0  0  0  0  0  0  0  0  0  0  0  0
   59.6840   81.5370   29.1800 C   0  0  0  0  0  0  0  0  0  0  0  0
   60.0990   82.2870   30.2820 C   0  0  0  0  0  0  0  0  0  0  0  0
   59.7270   81.8820   31.5680 C   0  0  0  0  0  0  0  0  0  0  0  0
   60.2650   82.8310   32.9650 S   0  0  0  0  0  0  0  0  0  0  0  0
   59.4160   82.0920   34.2180 N   0  0  0  0  0  0  0  0  0  0  0  0
   61.6580   82.5350   33.2140 O   0  0  0  0  0  0  0  0  0  0  0  0
   59.7680   84.1780   32.8230 O   0  0  0  0  0  0  0  0  0  0  0  0
   58.9690   80.7230   31.7630 C   0  0  0  0  0  0  0  0  0  0  0  0
   58.5570   79.9780   30.6550 C   0  0  0  0  0  0  0  0  0  0  0  0
   56.6700   78.3300   28.6480 C   0  0  0  0  0  0  0  0  0  0  0  0
   55.3250   78.0140   28.4420 C   0  0  0  0  0  0  0  0  0  0  0  0
   51.4449   74.1684   26.2608 H   0  0  0  0  0  0  0  0  0  0  0  0
   51.0203   75.5589   25.2059 H   0  0  0  0  0  0  0  0  0  0  0  0
   52.6953   74.9100   25.2059 H   0  0  0  0  0  0  0  0  0  0  0  0
   51.2767   76.4670   27.4362 H   0  0  0  0  0  0  0  0  0  0  0  0
   52.6513   75.6520   29.0183 H   0  0  0  0  0  0  0  0  0  0  0  0
   52.8461   74.2558   27.9050 H   0  0  0  0  0  0  0  0  0  0  0  0
   54.0592   75.5806   27.9050 H   0  0  0  0  0  0  0  0  0  0  0  0
   53.9497   76.9560   26.0760 H   0  0  0  0  0  0  0  0  0  0  0  0
   52.3585   77.6561   25.5168 H   0  0  0  0  0  0  0  0  0  0  0  0
   52.5627   79.3283   26.9548 H   0  0  0  0  0  0  0  0  0  0  0  0
   52.6438   78.1401   28.3206 H   0  0  0  0  0  0  0  0  0  0  0  0
   54.5001   80.5218   26.2734 H   0  0  0  0  0  0  0  0  0  0  0  0
   56.9044   81.0796   26.6344 H   0  0  0  0  0  0  0  0  0  0  0  0
   59.9758   81.8438   28.1648 H   0  0  0  0  0  0  0  0  0  0  0  0
   60.7131   83.1885   30.1401 H   0  0  0  0  0  0  0  0  0  0  0  0
   58.4820   82.4750   34.3540 H   0  0  0  0  0  0  0  0  0  0  0  0
   59.3970   81.0840   34.0530 H   0  0  0  0  0  0  0  0  0  0  0  0
   58.6995   80.4007   32.7796 H   0  0  0  0  0  0  0  0  0  0  0  0
   57.9643   79.0622   30.7967 H   0  0  0  0  0  0  0  0  0  0  0  0
   57.2901   77.7009   29.3035 H   0  0  0  0  0  0  0  0  0  0  0  0
   54.8855   77.1401   28.9450 H   0  0  0  0  0  0  0  0  0  0  0  0
  1  2  1  0
  2  3  1  0
  2  4  1  0
  4  5  1  0
  5  6  1  0
  6  7  1  0
  7  8  2  0
  8  9  1  0
  9 10  1  0
 10 11  1  0
 11 12  1  0
 12 13  2  0
 13 14  1  0
 14 15  1  0
 15 16  1  0
 15 17  2  0
 15 18  2  0
 14 19  2  0
 19 20  1  0
  9 21  2  0
 21 22  1  0
 22  6  2  0
 20 11  2  0
  1 23  1  0
  1 24  1  0
  1 25  1  0
  2 26  1  0
  3 27  1  0
  3 28  1  0
  3 29  1  0
  4 30  1  0
  4 31  1  0
  5 32  1  0
  5 33  1  0
  7 34  1  0
  8 35  1  0
 12 36  1  0
 13 37  1  0
 16 38  1  0
 16 39  1  0
 19 40  1  0
 20 41  1  0
 21 42  1  0
 22 43  1  0
M  END
>  <meeko>  (1) 
{"is_sidechain": false}

>  <smiles>  (1) 
CC(C)CCc1ccc(Oc2ccc(S(N)(=O)=O)cc2)cc1

>  <vina_score>  (1) 
-8.214

>  <job_id>  (1) 
36e545f9f0bf6152

$$$$
