
     RDKit          3D

 31 32  0  0  0  0  0  0  0  0999 V2000
   57.8340   78.2300   28.0930 O   0  0  0  0  0  0  0  0  0  0  0  0
   57.2870   78.5700   29.1370 C   0  0  0  0  0  0  0  0  0  0  0  0
   55.9350   77.9850   29.5240 C   0  0  0  0  0  0  0  0  0  0  0  0
   54.8910   78.0490   28.4320 C   0  0  0  0  0  0  0  0  0  0  0  0
   54.7820   79.1890   27.6210 C   0  0  0  0  0  0  0  0  0  0  0  0
   53.8070   79.2600   26.6240 C   0  0  0  0  0  0  0  0  0  0  0  0
   52.9350   78.1910   26.4220 C   0  0  0  0  0  0  0  0  0  0  0  0
   53.0440   77.0530   27.2160 C   0  0  0  0  0  0  0  0  0  0  0  0
   51.9690   75.7320   26.9700 Cl  0  0  0  0  0  0  0  0  0  0  0  0
   54.0150   76.9750   28.2160 C   0  0  0  0  0  0  0  0  0  0  0  0
   57.8650   79.3560   30.1190 N   0  0  0  0  0  0  0  0  0  0  0  0
   58.8180   80.3260   29.8670 C   0  0  0  0  0  0  0  0  0  0  0  0
   59.2950   80.6000   28.7730 O   0  0  0  0  0  0  0  0  0  0  0  0
   59.2330   81.1310   31.0500 C   0  0  0  0  0  0  0  0  0  0  0  0
   58.5150   80.9800   32.2460 C   0  0  0  0  0  0  0  0  0  0  0  0
   58.8710   81.7120   33.3810 C   0  0  0  0  0  0  0  0  0  0  0  0
   59.9410   82.6040   33.3230 C   0  0  0  0  0  0  0  0  0  0  0  0
   60.6370   82.7610   32.1300 C   0  0  0  0  0  0  0  0  0  0  0  0
   61.6560   83.6290   32.0720 F   0  0  0  0  0  0  0  0  0  0  0  0
   60.2950   82.0390   30.9910 C   0  0  0  0  0  0  0  0  0  0  0  0
   56.0823   76.9298   29.7977 H   0  0  0  0  0  0  0  0  0  0  0  0
   55.5558   78.5952   30.3570 H   0  0  0  0  0  0  0  0  0  0  0  0
   55.4703   80.0336   27.7719 H   0  0  0  0  0  0  0  0  0  0  0  0
   53.7268   80.1604   25.9972 H   0  0  0  0  0  0  0  0  0  0  0  0
   52.1646   78.2467   25.6389 H   0  0  0  0  0  0  0  0  0  0  0  0
   54.0933   76.0696   28.8357 H   0  0  0  0  0  0  0  0  0  0  0  0
   57.3510   79.4510   30.9810 H   0  0  0  0  0  0  0  0  0  0  0  0
   57.6668   80.2810   32.2900 H   0  0  0  0  0  0  0  0  0  0  0  0
   58.3088   81.5851   34.3179 H   0  0  0  0  0  0  0  0  0  0  0  0
   60.2322   83.1790   34.2144 H   0  0  0  0  0  0  0  0  0  0  0  0
   60.8538   82.1808   30.0542 H   0  0  0  0  0  0  0  0  0  0  0  0
  1  2  2  0
  2  3  1  0
  3  4  1  0
  4  5  2  0
  5  6  1  0
  6  7  2  0
  7  8  1  0
  8  9  1  0
  8 10  2  0
  2 11  1  0
 11 12  1  0
 12 13  2  0
 12 14  1  0
 14 15  2  0
 15 16  1  0
 16 17  2  0
 17 18  1  0
 18 19  1  0
 18 20  2  0
 10  4  1  0
 20 14  1  0
  3 21  1  0
  3 22  1  0
  5 23  1  0
  6 24  1  0
  7 25  1  0
 10 26  1  0
 11 27  1  0
 15 28  1  0
 16 29  1  0
 17 30  1  0
 20 31  1  0
M  END
>  <meeko>  (1) 
{"is_sidechain": false}

>  <smiles>  (1) 
O=C(Cc1cccc(Cl)c1)NC(=O)c1cccc(F)c1

>  <vina_score>  (1) 
-8.099

>  <job_id>  (1) 
36f515e39acc3f64

$$$$
