
     RDKit          3D

 56 59  0  0  0  0  0  0  0  0999 V2000
   57.9370   86.9770   33.6790 C   0  0  0  0  0  0  0  0  0  0  0  0
   58.4150   86.0500   32.6530 N   0  0  0  0  0  0  0  0  0  0  0  0
   58.1890   86.6220   31.3210 C   0  0  0  0  0  0  0  0  0  0  0  0
   59.8530   85.7640   32.8710 C   0  0  0  0  0  0  0  0  0  0  0  0
   60.0690   84.4530   33.6390 C   0  0  0  0  0  0  0  0  0  0  0  0
   60.4370   84.4900   34.8180 O   0  0  0  0  0  0  0  0  0  0  0  0
   59.8480   83.2460   32.9860 N   0  0  0  0  0  0  0  0  0  0  0  0
   59.6180   81.9650   33.6550 C   0  0  0  0  0  0  0  0  0  0  0  0
   58.5010   81.1940   32.9660 C   0  0  0  0  0  0  0  0  0  0  0  0
   58.7810   81.0610   31.4950 C   0  0  0  0  0  0  0  0  0  0  0  0
   58.2240   79.9960   30.8660 N   0  0  0  0  0  0  0  0  0  0  0  0
   58.4250   79.8380   29.5430 C   0  0  0  0  0  0  0  0  0  0  0  0
   57.8820   78.7460   28.8470 N   0  0  0  0  0  0  0  0  0  0  0  0
   56.5370   78.4150   28.7330 C   0  0  0  0  0  0  0  0  0  0  0  0
   55.9370   77.5960   29.6100 N   0  0  0  0  0  0  0  0  0  0  0  0
   54.6450   77.2900   29.3860 C   0  0  0  0  0  0  0  0  0  0  0  0
   53.9360   77.7520   28.3090 C   0  0  0  0  0  0  0  0  0  0  0  0
   52.6590   77.3890   28.1310 F   0  0  0  0  0  0  0  0  0  0  0  0
   54.6150   78.5740   27.4290 C   0  0  0  0  0  0  0  0  0  0  0  0
   53.9990   79.1490   26.2130 C   0  0  0  0  0  0  0  0  0  0  0  0
   53.7790   78.3570   25.0680 C   0  0  0  0  0  0  0  0  0  0  0  0
   53.2280   78.8900   23.8970 C   0  0  0  0  0  0  0  0  0  0  0  0
   52.8840   80.2360   23.8340 C   0  0  0  0  0  0  0  0  0  0  0  0
   53.0750   81.0480   24.9470 C   0  0  0  0  0  0  0  0  0  0  0  0
   53.5990   80.5020   26.1290 C   0  0  0  0  0  0  0  0  0  0  0  0
   53.8090   81.3610   27.1880 O   0  0  0  0  0  0  0  0  0  0  0  0
   54.7440   82.4000   26.8950 N   0  0  0  0  0  0  0  0  0  0  0  0
   55.8970   82.0810   26.5880 O   0  0  0  0  0  0  0  0  0  0  0  0
   54.2580   83.5270   27.0210 O   0  0  0  0  0  0  0  0  0  0  0  0
   55.9180   78.8970   27.6370 N   0  0  0  0  0  0  0  0  0  0  0  0
   59.1870   80.7540   28.8200 C   0  0  0  0  0  0  0  0  0  0  0  0
   59.7510   81.8510   29.4690 C   0  0  0  0  0  0  0  0  0  0  0  0
   59.5480   82.0200   30.8380 C   0  0  0  0  0  0  0  0  0  0  0  0
   60.1650   83.1850   31.5650 C   0  0  0  0  0  0  0  0  0  0  0  0
   58.1505   86.5629   34.6755 H   0  0  0  0  0  0  0  0  0  0  0  0
   58.4488   87.9442   33.5665 H   0  0  0  0  0  0  0  0  0  0  0  0
   56.8523   87.1209   33.5665 H   0  0  0  0  0  0  0  0  0  0  0  0
   57.7865   87.6406   31.4229 H   0  0  0  0  0  0  0  0  0  0  0  0
   59.1408   86.6571   30.7707 H   0  0  0  0  0  0  0  0  0  0  0  0
   57.4702   85.9971   30.7707 H   0  0  0  0  0  0  0  0  0  0  0  0
   60.3523   85.6893   31.8937 H   0  0  0  0  0  0  0  0  0  0  0  0
   60.2748   86.5831   33.4721 H   0  0  0  0  0  0  0  0  0  0  0  0
   60.5420   81.3691   33.6225 H   0  0  0  0  0  0  0  0  0  0  0  0
   59.3256   82.1569   34.6979 H   0  0  0  0  0  0  0  0  0  0  0  0
   58.4251   80.1913   33.4119 H   0  0  0  0  0  0  0  0  0  0  0  0
   57.5565   81.7417   33.0997 H   0  0  0  0  0  0  0  0  0  0  0  0
   58.3130   78.6230   27.9420 H   0  0  0  0  0  0  0  0  0  0  0  0
   54.1322   76.6348   30.1055 H   0  0  0  0  0  0  0  0  0  0  0  0
   54.0477   77.2907   25.0955 H   0  0  0  0  0  0  0  0  0  0  0  0
   53.0664   78.2417   23.0231 H   0  0  0  0  0  0  0  0  0  0  0  0
   52.4630   80.6563   22.9087 H   0  0  0  0  0  0  0  0  0  0  0  0
   52.8159   82.1160   24.9009 H   0  0  0  0  0  0  0  0  0  0  0  0
   59.3428   80.6116   27.7404 H   0  0  0  0  0  0  0  0  0  0  0  0
   60.3525   82.5788   28.9047 H   0  0  0  0  0  0  0  0  0  0  0  0
   61.2578   83.1164   31.4592 H   0  0  0  0  0  0  0  0  0  0  0  0
   59.7456   84.0950   31.1112 H   0  0  0  0  0  0  0  0  0  0  0  0
  1  2  1  0
  2  3  1  0
  2  4  1  0
  4  5  1  0
  5  6  2  0
  5  7  1  0
  7  8  1  0
  8  9  1  0
  9 10  1  0
 10 11  1  0
 11 12  2  0
 12 13  1  0
 13 14  1  0
 14 15  2  0
 15 16  1  0
 16 17  2  0
 17 18  1  0
 17 19  1  0
 19 20  1  0
 20 21  2  0
 21 22  1  0
 22 23  2  0
 23 24  1  0
 24 25  2  0
 25 26  1  0
 26 27  1  0
 27 28  2  0
 27 29  1  0
 19 30  2  0
 12 31  1  0
 31 32  2  0
 32 33  1  0
 33 34  1  0
 34  7  1  0
 33 10  2  0
 30 14  1  0
 25 20  1  0
  1 35  1  0
  1 36  1  0
  1 37  1  0
  3 38  1  0
  3 39  1  0
  3 40  1  0
  4 41  1  0
  4 42  1  0
  8 43  1  0
  8 44  1  0
  9 45  1  0
  9 46  1  0
 13 47  1  0
 16 48  1  0
 21 49  1  0
 22 50  1  0
 23 51  1  0
 24 52  1  0
 31 53  1  0
 32 54  1  0
 34 55  1  0
 34 56  1  0
M  CHG  2  27   1  29  -1
M  END
>  <meeko>  (1) 
{"is_sidechain": false}

>  <smiles>  (1) 
CN(C)CC(=O)N1CCc2nc(Nc3ncc(F)c(-c4ccccc4O[N+](=O)[O-])n3)ccc2C1

>  <vina_score>  (1) 
-8.707

>  <job_id>  (1) 
37343c295470a7f6

$$$$
