
     RDKit          3D

 39 40  0  0  0  0  0  0  0  0999 V2000
   58.8190   81.1440   29.2210 C   0  0  0  0  0  0  0  0  0  0  0  0
   57.6350   80.3300   29.3210 N   0  0  0  0  0  0  0  0  0  0  0  0
   57.4480   79.2900   28.4330 C   0  0  0  0  0  0  0  0  0  0  0  0
   58.2920   78.8800   27.6450 O   0  0  0  0  0  0  0  0  0  0  0  0
   56.1050   78.6650   28.4860 C   0  0  0  0  0  0  0  0  0  0  0  0
   55.9910   77.4880   29.2450 C   0  0  0  0  0  0  0  0  0  0  0  0
   54.8130   76.7460   29.2050 C   0  0  0  0  0  0  0  0  0  0  0  0
   53.7610   77.1670   28.3950 C   0  0  0  0  0  0  0  0  0  0  0  0
   53.8730   78.3390   27.6390 C   0  0  0  0  0  0  0  0  0  0  0  0
   55.0360   79.1260   27.6910 C   0  0  0  0  0  0  0  0  0  0  0  0
   55.1140   80.3590   26.9590 N   0  0  0  0  0  0  0  0  0  0  0  0
   56.2990   80.6010   26.1400 C   0  0  0  0  0  0  0  0  0  0  0  0
   53.9330   81.0930   26.7540 C   0  0  0  0  0  0  0  0  0  0  0  0
   53.3100   81.6710   27.6450 O   0  0  0  0  0  0  0  0  0  0  0  0
   53.3900   81.1740   25.3810 C   0  0  0  0  0  0  0  0  0  0  0  0
   53.0950   82.4180   24.8160 C   0  0  0  0  0  0  0  0  0  0  0  0
   52.5600   82.4820   23.5290 C   0  0  0  0  0  0  0  0  0  0  0  0
   52.2930   81.3070   22.8120 C   0  0  0  0  0  0  0  0  0  0  0  0
   51.7440   81.3810   21.4160 C   0  0  0  0  0  0  0  0  0  0  0  0
   52.5830   80.0650   23.3940 C   0  0  0  0  0  0  0  0  0  0  0  0
   53.1180   79.9950   24.6820 C   0  0  0  0  0  0  0  0  0  0  0  0
   59.1798   81.3920   30.2301 H   0  0  0  0  0  0  0  0  0  0  0  0
   59.5996   80.5907   28.6782 H   0  0  0  0  0  0  0  0  0  0  0  0
   58.5819   82.0709   28.6782 H   0  0  0  0  0  0  0  0  0  0  0  0
   56.7810   80.8020   29.6010 H   0  0  0  0  0  0  0  0  0  0  0  0
   56.8316   77.1528   29.8704 H   0  0  0  0  0  0  0  0  0  0  0  0
   54.7140   75.8325   29.8098 H   0  0  0  0  0  0  0  0  0  0  0  0
   52.8357   76.5739   28.3493 H   0  0  0  0  0  0  0  0  0  0  0  0
   53.0377   78.6491   26.9939 H   0  0  0  0  0  0  0  0  0  0  0  0
   57.1662   80.7781   26.7931 H   0  0  0  0  0  0  0  0  0  0  0  0
   56.4913   79.7236   25.5050 H   0  0  0  0  0  0  0  0  0  0  0  0
   56.1319   81.4836   25.5050 H   0  0  0  0  0  0  0  0  0  0  0  0
   53.2836   83.3416   25.3830 H   0  0  0  0  0  0  0  0  0  0  0  0
   52.3463   83.4604   23.0740 H   0  0  0  0  0  0  0  0  0  0  0  0
   50.6546   81.5278   21.4577 H   0  0  0  0  0  0  0  0  0  0  0  0
   52.2076   82.2248   20.8839 H   0  0  0  0  0  0  0  0  0  0  0  0
   51.9677   80.4446   20.8839 H   0  0  0  0  0  0  0  0  0  0  0  0
   52.3878   79.1395   22.8324 H   0  0  0  0  0  0  0  0  0  0  0  0
   53.3240   79.0179   25.1434 H   0  0  0  0  0  0  0  0  0  0  0  0
  1  2  1  0
  2  3  1  0
  3  4  2  0
  3  5  1  0
  5  6  2  0
  6  7  1  0
  7  8  2  0
  8  9  1  0
  9 10  2  0
 10 11  1  0
 11 12  1  0
 11 13  1  0
 13 14  2  0
 13 15  1  0
 15 16  1  0
 16 17  2  0
 17 18  1  0
 18 19  1  0
 18 20  2  0
 20 21  1  0
 10  5  1  0
 21 15  2  0
  1 22  1  0
  1 23  1  0
  1 24  1  0
  2 25  1  0
  6 26  1  0
  7 27  1  0
  8 28  1  0
  9 29  1  0
 12 30  1  0
 12 31  1  0
 12 32  1  0
 16 33  1  0
 17 34  1  0
 19 35  1  0
 19 36  1  0
 19 37  1  0
 20 38  1  0
 21 39  1  0
M  END
>  <meeko>  (1) 
{"is_sidechain": false}

>  <smiles>  (1) 
CNC(=O)c1ccccc1N(C)C(=O)c1ccc(C)cc1

>  <vina_score>  (1) 
-7.535

>  <job_id>  (1) 
3743a21614a50874

$$$$
