
     RDKit          3D

 56 59  0  0  0  0  0  0  0  0999 V2000
   66.1280   84.5010   30.6940 C   0  0  0  0  0  0  0  0  0  0  0  0
   64.6870   84.1190   30.8400 C   0  0  0  0  0  0  0  0  0  0  0  0
   64.3200   82.7830   31.0200 C   0  0  0  0  0  0  0  0  0  0  0  0
   62.9760   82.4330   31.1890 C   0  0  0  0  0  0  0  0  0  0  0  0
   61.9690   83.4070   31.1970 C   0  0  0  0  0  0  0  0  0  0  0  0
   60.6300   83.0000   31.3320 N   0  0  0  0  0  0  0  0  0  0  0  0
   59.9080   81.9360   30.7670 C   0  0  0  0  0  0  0  0  0  0  0  0
   59.8170   81.8380   29.3760 C   0  0  0  0  0  0  0  0  0  0  0  0
   59.1410   80.7700   28.7690 C   0  0  0  0  0  0  0  0  0  0  0  0
   58.5410   79.7570   29.5300 C   0  0  0  0  0  0  0  0  0  0  0  0
   57.8730   78.7250   28.8630 N   0  0  0  0  0  0  0  0  0  0  0  0
   56.5390   78.3460   28.7500 C   0  0  0  0  0  0  0  0  0  0  0  0
   55.9370   77.5700   29.6630 N   0  0  0  0  0  0  0  0  0  0  0  0
   54.6480   77.2510   29.4550 C   0  0  0  0  0  0  0  0  0  0  0  0
   53.9300   77.6830   28.3720 C   0  0  0  0  0  0  0  0  0  0  0  0
   54.6200   78.4880   27.4990 C   0  0  0  0  0  0  0  0  0  0  0  0
   53.9960   79.0060   26.2920 C   0  0  0  0  0  0  0  0  0  0  0  0
   53.3220   78.3010   25.3120 C   0  0  0  0  0  0  0  0  0  0  0  0
   52.8700   79.1170   24.3210 N   0  0  0  0  0  0  0  0  0  0  0  0
   53.2590   80.3280   24.6530 C   0  0  0  0  0  0  0  0  0  0  0  0
   53.0080   81.5430   23.8330 C   0  0  0  0  0  0  0  0  0  0  0  0
   53.9290   80.3240   25.8700 N   0  0  0  0  0  0  0  0  0  0  0  0
   54.4040   81.5320   26.5460 C   0  0  0  0  0  0  0  0  0  0  0  0
   55.5570   82.2520   25.8420 C   0  0  0  0  0  0  0  0  0  0  0  0
   53.2650   82.4820   26.9130 C   0  0  0  0  0  0  0  0  0  0  0  0
   55.9110   78.8220   27.6640 N   0  0  0  0  0  0  0  0  0  0  0  0
   58.6350   79.8590   30.9180 C   0  0  0  0  0  0  0  0  0  0  0  0
   59.3130   80.9270   31.5270 C   0  0  0  0  0  0  0  0  0  0  0  0
   62.3460   84.7410   31.0240 C   0  0  0  0  0  0  0  0  0  0  0  0
   63.6900   85.0980   30.8570 C   0  0  0  0  0  0  0  0  0  0  0  0
   66.5784   84.6204   31.6904 H   0  0  0  0  0  0  0  0  0  0  0  0
   66.6620   83.7134   30.1422 H   0  0  0  0  0  0  0  0  0  0  0  0
   66.2017   85.4497   30.1422 H   0  0  0  0  0  0  0  0  0  0  0  0
   65.0933   82.0007   31.0289 H   0  0  0  0  0  0  0  0  0  0  0  0
   62.7052   81.3747   31.3178 H   0  0  0  0  0  0  0  0  0  0  0  0
   60.0850   83.5820   31.9560 H   0  0  0  0  0  0  0  0  0  0  0  0
   60.2831   82.6110   28.7473 H   0  0  0  0  0  0  0  0  0  0  0  0
   59.0801   80.7260   27.6716 H   0  0  0  0  0  0  0  0  0  0  0  0
   58.4450   78.0390   28.3930 H   0  0  0  0  0  0  0  0  0  0  0  0
   54.1438   76.6097   30.1929 H   0  0  0  0  0  0  0  0  0  0  0  0
   52.8775   77.4056   28.2128 H   0  0  0  0  0  0  0  0  0  0  0  0
   53.1695   77.2118   25.3310 H   0  0  0  0  0  0  0  0  0  0  0  0
   52.8304   82.4026   24.4960 H   0  0  0  0  0  0  0  0  0  0  0  0
   53.8835   81.7443   23.1982 H   0  0  0  0  0  0  0  0  0  0  0  0
   52.1244   81.3809   23.1982 H   0  0  0  0  0  0  0  0  0  0  0  0
   54.8410   81.1642   27.4861 H   0  0  0  0  0  0  0  0  0  0  0  0
   56.2377   82.6771   26.5943 H   0  0  0  0  0  0  0  0  0  0  0  0
   56.1066   81.5363   25.2129 H   0  0  0  0  0  0  0  0  0  0  0  0
   55.1552   83.0600   25.2129 H   0  0  0  0  0  0  0  0  0  0  0  0
   53.1830   82.5504   28.0078 H   0  0  0  0  0  0  0  0  0  0  0  0
   53.4713   83.4795   26.4977 H   0  0  0  0  0  0  0  0  0  0  0  0
   52.3207   82.1000   26.4977 H   0  0  0  0  0  0  0  0  0  0  0  0
   58.1686   79.0873   31.5480 H   0  0  0  0  0  0  0  0  0  0  0  0
   59.3767   80.9697   32.6243 H   0  0  0  0  0  0  0  0  0  0  0  0
   61.5740   85.5245   31.0188 H   0  0  0  0  0  0  0  0  0  0  0  0
   63.9628   86.1570   30.7383 H   0  0  0  0  0  0  0  0  0  0  0  0
  1  2  1  0
  2  3  1  0
  3  4  2  0
  4  5  1  0
  5  6  1  0
  6  7  1  0
  7  8  1  0
  8  9  2  0
  9 10  1  0
 10 11  1  0
 11 12  1  0
 12 13  2  0
 13 14  1  0
 14 15  2  0
 15 16  1  0
 16 17  1  0
 17 18  2  0
 18 19  1  0
 19 20  2  0
 20 21  1  0
 20 22  1  0
 22 23  1  0
 23 24  1  0
 23 25  1  0
 16 26  2  0
 10 27  2  0
 27 28  1  0
  5 29  2  0
 29 30  1  0
 30  2  2  0
 28  7  2  0
 26 12  1  0
 22 17  1  0
  1 31  1  0
  1 32  1  0
  1 33  1  0
  3 34  1  0
  4 35  1  0
  6 36  1  0
  8 37  1  0
  9 38  1  0
 11 39  1  0
 14 40  1  0
 15 41  1  0
 18 42  1  0
 21 43  1  0
 21 44  1  0
 21 45  1  0
 23 46  1  0
 24 47  1  0
 24 48  1  0
 24 49  1  0
 25 50  1  0
 25 51  1  0
 25 52  1  0
 27 53  1  0
 28 54  1  0
 29 55  1  0
 30 56  1  0
M  END
>  <meeko>  (1) 
{"is_sidechain": false}

>  <smiles>  (1) 
Cc1ccc(Nc2ccc(Nc3nccc(-c4cnc(C)n4C(C)C)n3)cc2)cc1

>  <vina_score>  (1) 
-9.061

>  <job_id>  (1) 
374d7995cb692cbd

$$$$
