
     RDKit          3D

 60 64  0  0  0  0  0  0  0  0999 V2000
   59.2000   83.7530   33.1960 N   0  0  0  0  0  0  0  0  0  0  0  0
   59.7900   82.3430   33.1550 S   0  0  0  0  0  0  0  0  0  0  0  0
   59.6620   81.3000   34.1500 O   0  0  0  0  0  0  0  0  0  0  0  0
   61.4650   82.5300   33.0160 N   0  0  0  0  0  0  0  0  0  0  0  0
   61.9790   83.6700   32.5110 C   0  0  0  0  0  0  0  0  0  0  0  0
   62.7140   83.6880   31.3010 C   0  0  0  0  0  0  0  0  0  0  0  0
   63.0750   85.0050   31.0860 C   0  0  0  0  0  0  0  0  0  0  0  0
   63.8320   85.6450   30.0120 C   0  0  0  0  0  0  0  0  0  0  0  0
   63.7880   87.0380   29.8480 C   0  0  0  0  0  0  0  0  0  0  0  0
   64.5120   87.6630   28.8270 C   0  0  0  0  0  0  0  0  0  0  0  0
   65.2880   86.9030   27.9530 C   0  0  0  0  0  0  0  0  0  0  0  0
   65.3290   85.5240   28.1100 C   0  0  0  0  0  0  0  0  0  0  0  0
   66.0710   84.7360   27.2770 O   0  0  0  0  0  0  0  0  0  0  0  0
   64.6120   84.8930   29.1230 C   0  0  0  0  0  0  0  0  0  0  0  0
   62.5280   85.6800   32.1470 N   0  0  0  0  0  0  0  0  0  0  0  0
   61.8550   84.9010   33.0090 N   0  0  0  0  0  0  0  0  0  0  0  0
   59.2500   81.6400   31.6130 C   0  0  0  0  0  0  0  0  0  0  0  0
   59.3820   82.3710   30.4340 C   0  0  0  0  0  0  0  0  0  0  0  0
   58.9120   81.8270   29.2350 C   0  0  0  0  0  0  0  0  0  0  0  0
   58.3080   80.5560   29.1920 C   0  0  0  0  0  0  0  0  0  0  0  0
   57.8320   80.0770   27.9510 N   0  0  0  0  0  0  0  0  0  0  0  0
   56.5760   79.9000   27.4770 C   0  0  0  0  0  0  0  0  0  0  0  0
   56.1140   80.6130   26.3410 C   0  0  0  0  0  0  0  0  0  0  0  0
   54.8060   80.2180   26.1320 C   0  0  0  0  0  0  0  0  0  0  0  0
   53.8260   80.5930   25.1170 C   0  0  0  0  0  0  0  0  0  0  0  0
   53.3690   81.9160   25.0000 C   0  0  0  0  0  0  0  0  0  0  0  0
   52.4310   82.2660   24.0220 C   0  0  0  0  0  0  0  0  0  0  0  0
   51.9410   81.2870   23.1580 C   0  0  0  0  0  0  0  0  0  0  0  0
   50.7630   81.7170   21.9040 S   0  0  0  0  0  0  0  0  0  0  0  0
   51.1340   80.6030   20.6970 N   0  0  0  0  0  0  0  0  0  0  0  0
   49.4450   81.3570   22.3700 O   0  0  0  0  0  0  0  0  0  0  0  0
   51.0840   83.0350   21.4100 O   0  0  0  0  0  0  0  0  0  0  0  0
   52.3930   79.9690   23.2460 C   0  0  0  0  0  0  0  0  0  0  0  0
   53.3300   79.6290   24.2250 C   0  0  0  0  0  0  0  0  0  0  0  0
   54.5750   79.3060   27.1290 N   0  0  0  0  0  0  0  0  0  0  0  0
   55.6130   79.1070   27.9500 N   0  0  0  0  0  0  0  0  0  0  0  0
   58.1830   79.8490   30.3960 C   0  0  0  0  0  0  0  0  0  0  0  0
   58.6510   80.3800   31.6030 C   0  0  0  0  0  0  0  0  0  0  0  0
   59.7610   84.3000   33.8630 H   0  0  0  0  0  0  0  0  0  0  0  0
   61.9140   82.1610   33.8400 H   0  0  0  0  0  0  0  0  0  0  0  0
   62.9506   82.8260   30.6599 H   0  0  0  0  0  0  0  0  0  0  0  0
   63.1765   87.6462   30.5308 H   0  0  0  0  0  0  0  0  0  0  0  0
   64.4689   88.7563   28.7136 H   0  0  0  0  0  0  0  0  0  0  0  0
   65.8604   87.3895   27.1494 H   0  0  0  0  0  0  0  0  0  0  0  0
   66.6900   84.2140   27.8130 H   0  0  0  0  0  0  0  0  0  0  0  0
   64.6579   83.7988   29.2261 H   0  0  0  0  0  0  0  0  0  0  0  0
   62.5610   86.6770   32.3280 H   0  0  0  0  0  0  0  0  0  0  0  0
   59.8512   83.3658   30.4466 H   0  0  0  0  0  0  0  0  0  0  0  0
   59.0164   82.4047   28.3048 H   0  0  0  0  0  0  0  0  0  0  0  0
   58.5940   79.7870   27.3490 H   0  0  0  0  0  0  0  0  0  0  0  0
   56.6851   81.3385   25.7432 H   0  0  0  0  0  0  0  0  0  0  0  0
   53.7529   82.6862   25.6852 H   0  0  0  0  0  0  0  0  0  0  0  0
   52.0827   83.3058   23.9354 H   0  0  0  0  0  0  0  0  0  0  0  0
   50.6930   79.6940   20.8320 H   0  0  0  0  0  0  0  0  0  0  0  0
   50.9040   81.0100   19.7880 H   0  0  0  0  0  0  0  0  0  0  0  0
   52.0148   79.2051   22.5508 H   0  0  0  0  0  0  0  0  0  0  0  0
   53.6845   78.5902   24.2980 H   0  0  0  0  0  0  0  0  0  0  0  0
   53.7310   78.7720   27.2970 H   0  0  0  0  0  0  0  0  0  0  0  0
   57.7075   78.8571   30.3918 H   0  0  0  0  0  0  0  0  0  0  0  0
   58.5474   79.8083   32.5370 H   0  0  0  0  0  0  0  0  0  0  0  0
  1  2  2  0
  2  3  2  0
  2  4  1  0
  4  5  1  0
  5  6  1  0
  6  7  2  0
  7  8  1  0
  8  9  2  0
  9 10  1  0
 10 11  2  0
 11 12  1  0
 12 13  1  0
 12 14  2  0
  7 15  1  0
 15 16  1  0
  2 17  1  0
 17 18  1  0
 18 19  2  0
 19 20  1  0
 20 21  1  0
 21 22  1  0
 22 23  1  0
 23 24  2  0
 24 25  1  0
 25 26  1  0
 26 27  2  0
 27 28  1  0
 28 29  1  0
 29 30  1  0
 29 31  2  0
 29 32  2  0
 28 33  2  0
 33 34  1  0
 24 35  1  0
 35 36  1  0
 20 37  2  0
 37 38  1  0
 16  5  2  0
 38 17  2  0
 14  8  1  0
 36 22  2  0
 34 25  2  0
  1 39  1  0
  4 40  1  0
  6 41  1  0
  9 42  1  0
 10 43  1  0
 11 44  1  0
 13 45  1  0
 14 46  1  0
 15 47  1  0
 18 48  1  0
 19 49  1  0
 21 50  1  0
 23 51  1  0
 26 52  1  0
 27 53  1  0
 30 54  1  0
 30 55  1  0
 33 56  1  0
 34 57  1  0
 35 58  1  0
 37 59  1  0
 38 60  1  0
M  END
>  <meeko>  (1) 
{"is_sidechain": false}

>  <smiles>  (1) 
N=S(=O)(Nc1cc(-c2cccc(O)c2)[nH]n1)c1ccc(Nc2cc(-c3ccc(S(N)(=O)=O)cc3)[nH]n2)cc1

>  <vina_score>  (1) 
-9.407

>  <job_id>  (1) 
37541f58cad5f8bb

$$$$
