
     RDKit          3D

 39 42  0  0  0  0  0  0  0  0999 V2000
   51.4420   80.9860   22.6560 C   0  0  0  0  0  0  0  0  0  0  0  0
   52.1310   80.7870   23.9410 C   0  0  0  0  0  0  0  0  0  0  0  0
   53.4140   80.7540   24.2080 N   0  0  0  0  0  0  0  0  0  0  0  0
   53.4300   80.5380   25.5640 C   0  0  0  0  0  0  0  0  0  0  0  0
   54.6850   80.4290   26.3010 C   0  0  0  0  0  0  0  0  0  0  0  0
   55.7820   81.3200   26.2170 C   0  0  0  0  0  0  0  0  0  0  0  0
   55.9350   82.5490   25.3950 C   0  0  0  0  0  0  0  0  0  0  0  0
   56.7920   80.9430   27.0080 N   0  0  0  0  0  0  0  0  0  0  0  0
   56.3540   79.8240   27.6400 N   0  0  0  0  0  0  0  0  0  0  0  0
   57.0420   79.0490   28.5890 C   0  0  0  0  0  0  0  0  0  0  0  0
   58.4230   79.4810   29.0080 C   0  0  0  0  0  0  0  0  0  0  0  0
   58.4120   80.5520   30.0750 C   0  0  0  0  0  0  0  0  0  0  0  0
   58.2130   80.2170   31.4230 C   0  0  0  0  0  0  0  0  0  0  0  0
   58.1850   81.2110   32.4060 C   0  0  0  0  0  0  0  0  0  0  0  0
   58.3530   82.5490   32.0520 C   0  0  0  0  0  0  0  0  0  0  0  0
   58.5460   82.8830   30.7160 C   0  0  0  0  0  0  0  0  0  0  0  0
   58.7120   84.1800   30.3270 O   0  0  0  0  0  0  0  0  0  0  0  0
   58.5740   81.9020   29.7310 C   0  0  0  0  0  0  0  0  0  0  0  0
   56.4610   77.9350   29.0680 C   0  0  0  0  0  0  0  0  0  0  0  0
   55.0990   77.6400   28.5570 C   0  0  0  0  0  0  0  0  0  0  0  0
   54.4380   78.3420   27.6920 N   0  0  0  0  0  0  0  0  0  0  0  0
   55.0670   79.4620   27.2110 C   0  0  0  0  0  0  0  0  0  0  0  0
   52.2110   80.4420   26.1200 N   0  0  0  0  0  0  0  0  0  0  0  0
   51.3450   80.6070   25.0390 O   0  0  0  0  0  0  0  0  0  0  0  0
   50.4003   81.2869   22.8412 H   0  0  0  0  0  0  0  0  0  0  0  0
   51.9546   81.7728   22.0831 H   0  0  0  0  0  0  0  0  0  0  0  0
   51.4561   80.0471   22.0831 H   0  0  0  0  0  0  0  0  0  0  0  0
   56.0436   83.4213   26.0563 H   0  0  0  0  0  0  0  0  0  0  0  0
   56.8286   82.4567   24.7602 H   0  0  0  0  0  0  0  0  0  0  0  0
   55.0461   82.6786   24.7602 H   0  0  0  0  0  0  0  0  0  0  0  0
   58.9607   78.6042   29.3978 H   0  0  0  0  0  0  0  0  0  0  0  0
   58.9162   79.9066   28.1216 H   0  0  0  0  0  0  0  0  0  0  0  0
   58.0779   79.1634   31.7089 H   0  0  0  0  0  0  0  0  0  0  0  0
   58.0302   80.9370   33.4600 H   0  0  0  0  0  0  0  0  0  0  0  0
   58.3331   83.3336   32.8228 H   0  0  0  0  0  0  0  0  0  0  0  0
   58.5570   84.7560   31.0930 H   0  0  0  0  0  0  0  0  0  0  0  0
   58.7237   82.1856   28.6788 H   0  0  0  0  0  0  0  0  0  0  0  0
   56.9650   77.2813   29.7951 H   0  0  0  0  0  0  0  0  0  0  0  0
   54.6040   76.7398   28.9502 H   0  0  0  0  0  0  0  0  0  0  0  0
  1  2  1  0
  2  3  2  0
  3  4  1  0
  4  5  1  0
  5  6  1  0
  6  7  1  0
  6  8  2  0
  8  9  1  0
  9 10  1  0
 10 11  1  0
 11 12  1  0
 12 13  2  0
 13 14  1  0
 14 15  2  0
 15 16  1  0
 16 17  1  0
 16 18  2  0
 10 19  2  0
 19 20  1  0
 20 21  2  0
 21 22  1  0
  4 23  2  0
 23 24  1  0
 24  2  1  0
 22  5  2  0
 22  9  1  0
 18 12  1  0
  1 25  1  0
  1 26  1  0
  1 27  1  0
  7 28  1  0
  7 29  1  0
  7 30  1  0
 11 31  1  0
 11 32  1  0
 13 33  1  0
 14 34  1  0
 15 35  1  0
 17 36  1  0
 18 37  1  0
 19 38  1  0
 20 39  1  0
M  END
>  <meeko>  (1) 
{"is_sidechain": false}

>  <smiles>  (1) 
Cc1nc(-c2c(C)nn3c(Cc4cccc(O)c4)ccnc23)no1

>  <vina_score>  (1) 
-8.154

>  <job_id>  (1) 
3799409374e4e613

$$$$
