
     RDKit          3D

 40 41  0  0  0  0  0  0  0  0999 V2000
   52.9340   80.5530   23.4430 C   0  0  0  0  0  0  0  0  0  0  0  0
   52.9410   79.3860   24.4330 C   0  0  0  0  0  0  0  0  0  0  0  0
   54.0170   78.3570   24.0870 C   0  0  0  0  0  0  0  0  0  0  0  0
   53.0220   79.8330   25.8360 N   0  0  0  0  0  0  0  0  0  0  0  0
   52.5600   81.1920   26.0990 C   0  0  0  0  0  0  0  0  0  0  0  0
   53.3340   78.9190   26.8460 C   0  0  0  0  0  0  0  0  0  0  0  0
   52.5820   78.0230   27.2230 O   0  0  0  0  0  0  0  0  0  0  0  0
   54.6590   79.0000   27.5000 C   0  0  0  0  0  0  0  0  0  0  0  0
   55.6340   79.8810   27.0260 C   0  0  0  0  0  0  0  0  0  0  0  0
   56.8870   79.9220   27.6450 C   0  0  0  0  0  0  0  0  0  0  0  0
   57.1930   79.0750   28.7220 C   0  0  0  0  0  0  0  0  0  0  0  0
   58.4520   79.1900   29.3350 N   0  0  0  0  0  0  0  0  0  0  0  0
   59.0450   80.2230   30.0820 C   0  0  0  0  0  0  0  0  0  0  0  0
   59.7540   81.2770   29.4930 C   0  0  0  0  0  0  0  0  0  0  0  0
   60.2990   82.3030   30.2700 C   0  0  0  0  0  0  0  0  0  0  0  0
   60.1360   82.2930   31.6520 C   0  0  0  0  0  0  0  0  0  0  0  0
   59.4290   81.2580   32.2560 C   0  0  0  0  0  0  0  0  0  0  0  0
   58.8870   80.2330   31.4750 C   0  0  0  0  0  0  0  0  0  0  0  0
   56.2050   78.1870   29.1690 C   0  0  0  0  0  0  0  0  0  0  0  0
   54.9490   78.1350   28.5560 C   0  0  0  0  0  0  0  0  0  0  0  0
   52.9283   81.5035   23.9967 H   0  0  0  0  0  0  0  0  0  0  0  0
   53.8325   80.5026   22.8104 H   0  0  0  0  0  0  0  0  0  0  0  0
   52.0362   80.4918   22.8104 H   0  0  0  0  0  0  0  0  0  0  0  0
   51.9693   78.8804   24.3324 H   0  0  0  0  0  0  0  0  0  0  0  0
   54.4448   77.9479   25.0142 H   0  0  0  0  0  0  0  0  0  0  0  0
   53.5695   77.5422   23.4989 H   0  0  0  0  0  0  0  0  0  0  0  0
   54.8110   78.8404   23.4989 H   0  0  0  0  0  0  0  0  0  0  0  0
   52.5041   81.3565   27.1852 H   0  0  0  0  0  0  0  0  0  0  0  0
   53.2642   81.9110   25.6550 H   0  0  0  0  0  0  0  0  0  0  0  0
   51.5635   81.3329   25.6550 H   0  0  0  0  0  0  0  0  0  0  0  0
   55.4173   80.5384   26.1711 H   0  0  0  0  0  0  0  0  0  0  0  0
   57.6463   80.6302   27.2818 H   0  0  0  0  0  0  0  0  0  0  0  0
   59.0120   78.3460   29.2860 H   0  0  0  0  0  0  0  0  0  0  0  0
   59.8842   81.2979   28.4009 H   0  0  0  0  0  0  0  0  0  0  0  0
   60.8574   83.1193   29.7886 H   0  0  0  0  0  0  0  0  0  0  0  0
   60.5644   83.1001   32.2644 H   0  0  0  0  0  0  0  0  0  0  0  0
   59.2965   81.2463   33.3479 H   0  0  0  0  0  0  0  0  0  0  0  0
   58.3272   79.4207   31.9616 H   0  0  0  0  0  0  0  0  0  0  0  0
   56.4211   77.5197   30.0163 H   0  0  0  0  0  0  0  0  0  0  0  0
   54.1933   77.4157   28.9046 H   0  0  0  0  0  0  0  0  0  0  0  0
  1  2  1  0
  2  3  1  0
  2  4  1  0
  4  5  1  0
  4  6  1  0
  6  7  2  0
  6  8  1  0
  8  9  1  0
  9 10  2  0
 10 11  1  0
 11 12  1  0
 12 13  1  0
 13 14  2  0
 14 15  1  0
 15 16  2  0
 16 17  1  0
 17 18  2  0
 11 19  2  0
 19 20  1  0
 20  8  2  0
 18 13  1  0
  1 21  1  0
  1 22  1  0
  1 23  1  0
  2 24  1  0
  3 25  1  0
  3 26  1  0
  3 27  1  0
  5 28  1  0
  5 29  1  0
  5 30  1  0
  9 31  1  0
 10 32  1  0
 12 33  1  0
 14 34  1  0
 15 35  1  0
 16 36  1  0
 17 37  1  0
 18 38  1  0
 19 39  1  0
 20 40  1  0
M  END
>  <meeko>  (1) 
{"is_sidechain": false}

>  <smiles>  (1) 
CC(C)N(C)C(=O)c1ccc(Nc2ccccc2)cc1

>  <vina_score>  (1) 
-7.380

>  <job_id>  (1) 
37df4660219047c0

$$$$
