
     RDKit          3D

 64 65  0  0  0  0  0  0  0  0999 V2000
   60.4350   84.0690   34.3510 C   0  0  0  0  0  0  0  0  0  0  0  0
   60.1530   82.9050   33.4030 C   0  0  2  0  0  0  0  0  0  0  0  0
   61.3160   81.9030   33.2650 C   0  0  0  0  0  0  0  0  0  0  0  0
   61.3820   80.5990   34.0970 C   0  0  0  0  0  0  0  0  0  0  0  0
   60.2620   80.6480   35.1510 C   0  0  0  0  0  0  0  0  0  0  0  0
   62.7080   80.3440   34.8070 C   0  0  0  0  0  0  0  0  0  0  0  0
   61.0730   79.4820   33.2700 O   0  0  0  0  0  0  0  0  0  0  0  0
   59.4500   83.5010   31.8680 S   0  0  0  0  0  0  0  0  0  0  0  0
   58.2270   84.2170   32.1880 O   0  0  0  0  0  0  0  0  0  0  0  0
   60.4930   84.1620   31.1050 O   0  0  0  0  0  0  0  0  0  0  0  0
   58.9450   82.0370   30.9940 C   0  0  0  0  0  0  0  0  0  0  0  0
   58.3200   81.0090   31.7000 C   0  0  0  0  0  0  0  0  0  0  0  0
   57.9080   79.8590   31.0200 C   0  0  0  0  0  0  0  0  0  0  0  0
   58.0990   79.7170   29.6340 C   0  0  0  0  0  0  0  0  0  0  0  0
   57.6630   78.5360   29.0220 N   0  0  0  0  0  0  0  0  0  0  0  0
   56.4130   77.9720   28.7910 C   0  0  0  0  0  0  0  0  0  0  0  0
   56.1100   76.7200   29.1510 N   0  0  0  0  0  0  0  0  0  0  0  0
   54.8730   76.2640   28.8680 C   0  0  0  0  0  0  0  0  0  0  0  0
   53.9110   77.0160   28.2460 C   0  0  0  0  0  0  0  0  0  0  0  0
   52.5590   76.4950   27.9390 C   0  0  0  0  0  0  0  0  0  0  0  0
   52.3660   75.2230   28.3950 F   0  0  0  0  0  0  0  0  0  0  0  0
   52.2940   76.4440   26.6050 F   0  0  0  0  0  0  0  0  0  0  0  0
   51.5620   77.2320   28.4990 F   0  0  0  0  0  0  0  0  0  0  0  0
   54.3020   78.2900   27.9380 C   0  0  0  0  0  0  0  0  0  0  0  0
   53.4170   79.0930   27.2590 O   0  0  0  0  0  0  0  0  0  0  0  0
   54.0060   80.1870   26.5190 C   0  0  2  0  0  0  0  0  0  0  0  0
   53.5960   81.4450   27.2880 C   0  0  0  0  0  0  0  0  0  0  0  0
   53.5280   80.1800   25.0290 C   0  0  0  0  0  0  0  0  0  0  0  0
   53.6850   78.8090   24.3620 C   0  0  0  0  0  0  0  0  0  0  0  0
   52.0840   80.6690   24.8800 C   0  0  0  0  0  0  0  0  0  0  0  0
   54.3210   81.1040   24.2610 O   0  0  0  0  0  0  0  0  0  0  0  0
   55.5360   78.7770   28.1710 N   0  0  0  0  0  0  0  0  0  0  0  0
   58.7090   80.7730   28.9510 C   0  0  0  0  0  0  0  0  0  0  0  0
   59.1240   81.9320   29.6180 C   0  0  0  0  0  0  0  0  0  0  0  0
   60.3511   83.7229   35.3917 H   0  0  0  0  0  0  0  0  0  0  0  0
   61.4514   84.4497   34.1720 H   0  0  0  0  0  0  0  0  0  0  0  0
   59.7056   84.8727   34.1720 H   0  0  0  0  0  0  0  0  0  0  0  0
   59.3788   82.2749   33.8651 H   0  0  0  0  0  0  0  0  0  0  0  0
   61.3327   81.5951   32.2091 H   0  0  0  0  0  0  0  0  0  0  0  0
   62.1628   82.4768   33.6697 H   0  0  0  0  0  0  0  0  0  0  0  0
   60.7048   80.6286   36.1577 H   0  0  0  0  0  0  0  0  0  0  0  0
   59.6795   81.5725   35.0244 H   0  0  0  0  0  0  0  0  0  0  0  0
   59.6010   79.7779   35.0244 H   0  0  0  0  0  0  0  0  0  0  0  0
   62.5527   80.3739   35.8956 H   0  0  0  0  0  0  0  0  0  0  0  0
   63.0941   79.3552   34.5187 H   0  0  0  0  0  0  0  0  0  0  0  0
   63.4333   81.1191   34.5187 H   0  0  0  0  0  0  0  0  0  0  0  0
   60.1440   79.5620   32.9610 H   0  0  0  0  0  0  0  0  0  0  0  0
   58.1526   81.1024   32.7832 H   0  0  0  0  0  0  0  0  0  0  0  0
   57.4235   79.0469   31.5818 H   0  0  0  0  0  0  0  0  0  0  0  0
   58.3810   77.9250   28.6560 H   0  0  0  0  0  0  0  0  0  0  0  0
   54.6223   75.2313   29.1521 H   0  0  0  0  0  0  0  0  0  0  0  0
   55.1017   80.1188   26.4497 H   0  0  0  0  0  0  0  0  0  0  0  0
   53.6593   81.2509   28.3689 H   0  0  0  0  0  0  0  0  0  0  0  0
   54.2710   82.2725   27.0239 H   0  0  0  0  0  0  0  0  0  0  0  0
   52.5631   81.7158   27.0239 H   0  0  0  0  0  0  0  0  0  0  0  0
   53.7739   78.0326   25.1362 H   0  0  0  0  0  0  0  0  0  0  0  0
   52.8046   78.6030   23.7356 H   0  0  0  0  0  0  0  0  0  0  0  0
   54.5892   78.8074   23.7356 H   0  0  0  0  0  0  0  0  0  0  0  0
   51.6428   80.8184   25.8765 H   0  0  0  0  0  0  0  0  0  0  0  0
   52.0742   81.6206   24.3282 H   0  0  0  0  0  0  0  0  0  0  0  0
   51.4980   79.9192   24.3282 H   0  0  0  0  0  0  0  0  0  0  0  0
   53.7190   81.8190   23.9720 H   0  0  0  0  0  0  0  0  0  0  0  0
   58.8665   80.6917   27.8654 H   0  0  0  0  0  0  0  0  0  0  0  0
   59.5894   82.7558   29.0569 H   0  0  0  0  0  0  0  0  0  0  0  0
  1  2  1  0
  2  3  1  0
  3  4  1  0
  4  5  1  0
  4  6  1  0
  4  7  1  0
  2  8  1  0
  8  9  2  0
  8 10  2  0
  8 11  1  0
 11 12  1  0
 12 13  2  0
 13 14  1  0
 14 15  1  0
 15 16  1  0
 16 17  2  0
 17 18  1  0
 18 19  2  0
 19 20  1  0
 20 21  1  0
 20 22  1  0
 20 23  1  0
 19 24  1  0
 24 25  1  0
 25 26  1  0
 26 27  1  0
 26 28  1  0
 28 29  1  0
 28 30  1  0
 28 31  1  0
 24 32  2  0
 14 33  2  0
 33 34  1  0
 34 11  2  0
 32 16  1  0
  1 35  1  0
  1 36  1  0
  1 37  1  0
  2 38  1  1
  3 39  1  0
  3 40  1  0
  5 41  1  0
  5 42  1  0
  5 43  1  0
  6 44  1  0
  6 45  1  0
  6 46  1  0
  7 47  1  0
 12 48  1  0
 13 49  1  0
 15 50  1  0
 18 51  1  0
 26 52  1  6
 27 53  1  0
 27 54  1  0
 27 55  1  0
 29 56  1  0
 29 57  1  0
 29 58  1  0
 30 59  1  0
 30 60  1  0
 30 61  1  0
 31 62  1  0
 33 63  1  0
 34 64  1  0
M  END
>  <meeko>  (1) 
{"is_sidechain": false}

>  <smiles>  (1) 
C[C@H](CC(C)(C)O)S(=O)(=O)c1ccc(Nc2ncc(C(F)(F)F)c(O[C@H](C)C(C)(C)O)n2)cc1

>  <vina_score>  (1) 
-8.318

>  <job_id>  (1) 
37f155fcabb50d45

$$$$
