
     RDKit          3D

 46 51  0  0  0  0  0  0  0  0999 V2000
   54.1230   83.8380   26.3700 C   0  0  0  0  0  0  0  0  0  0  0  0
   52.9350   83.1380   26.1690 C   0  0  0  0  0  0  0  0  0  0  0  0
   52.9690   81.8080   25.7500 C   0  0  0  0  0  0  0  0  0  0  0  0
   54.1950   81.1630   25.5320 C   0  0  0  0  0  0  0  0  0  0  0  0
   54.2370   79.7300   25.0560 C   0  0  0  0  0  0  0  0  0  0  0  0
   53.8880   78.7590   26.1220 C   0  0  0  0  0  0  0  0  0  0  0  0
   52.8450   77.9370   26.1730 N   0  0  0  0  0  0  0  0  0  0  0  0
   52.9150   77.2100   27.3580 N   0  0  0  0  0  0  0  0  0  0  0  0
   53.9930   77.6220   27.9580 C   0  0  0  0  0  0  0  0  0  0  0  0
   54.8510   77.2710   29.3900 S   0  0  0  0  0  0  0  0  0  0  0  0
   56.0290   78.4830   28.8300 C   0  0  0  0  0  0  0  0  0  0  0  0
   57.4020   78.7750   29.8620 S   0  0  0  0  0  0  0  0  0  0  0  0
   58.5550   80.0910   28.7710 S   0  0  0  0  0  0  0  0  0  0  0  0
   59.3670   80.9510   30.0430 C   0  0  0  0  0  0  0  0  0  0  0  0
   60.3090   81.8280   29.8340 N   0  0  0  0  0  0  0  0  0  0  0  0
   60.6810   82.2420   31.0700 N   0  0  0  0  0  0  0  0  0  0  0  0
   61.6130   83.1220   31.5430 C   0  0  0  0  0  0  0  0  0  0  0  0
   62.5140   83.9290   30.6800 C   0  0  0  0  0  0  0  0  0  0  0  0
   63.9490   83.4510   30.6440 C   0  0  0  0  0  0  0  0  0  0  0  0
   64.2960   82.1450   31.0270 C   0  0  0  0  0  0  0  0  0  0  0  0
   65.6290   81.7310   31.0170 C   0  0  0  0  0  0  0  0  0  0  0  0
   66.6330   82.6230   30.6450 C   0  0  0  0  0  0  0  0  0  0  0  0
   66.3070   83.9290   30.2910 C   0  0  0  0  0  0  0  0  0  0  0  0
   64.9740   84.3420   30.2870 C   0  0  0  0  0  0  0  0  0  0  0  0
   61.5470   83.1240   32.8710 N   0  0  0  0  0  0  0  0  0  0  0  0
   60.5570   82.2300   33.2670 N   0  0  0  0  0  0  0  0  0  0  0  0
   60.0740   81.7340   32.1670 C   0  0  0  0  0  0  0  0  0  0  0  0
   58.8770   80.6060   31.7140 S   0  0  0  0  0  0  0  0  0  0  0  0
   55.8030   79.0940   27.7000 N   0  0  0  0  0  0  0  0  0  0  0  0
   54.6420   78.5680   27.2430 N   0  0  0  0  0  0  0  0  0  0  0  0
   55.3850   81.8800   25.7280 C   0  0  0  0  0  0  0  0  0  0  0  0
   55.3480   83.2100   26.1470 C   0  0  0  0  0  0  0  0  0  0  0  0
   54.0945   84.8855   26.7044 H   0  0  0  0  0  0  0  0  0  0  0  0
   51.9689   83.6350   26.3410 H   0  0  0  0  0  0  0  0  0  0  0  0
   52.0280   81.2615   25.5895 H   0  0  0  0  0  0  0  0  0  0  0  0
   53.5228   79.6139   24.2275 H   0  0  0  0  0  0  0  0  0  0  0  0
   55.2685   79.5167   24.7389 H   0  0  0  0  0  0  0  0  0  0  0  0
   62.1186   83.9042   29.6538 H   0  0  0  0  0  0  0  0  0  0  0  0
   62.5339   84.9407   31.1114 H   0  0  0  0  0  0  0  0  0  0  0  0
   63.5096   81.4415   31.3379 H   0  0  0  0  0  0  0  0  0  0  0  0
   65.8870   80.7006   31.3028 H   0  0  0  0  0  0  0  0  0  0  0  0
   67.6829   82.2950   30.6311 H   0  0  0  0  0  0  0  0  0  0  0  0
   67.1018   84.6371   30.0138 H   0  0  0  0  0  0  0  0  0  0  0  0
   64.7240   85.3745   30.0017 H   0  0  0  0  0  0  0  0  0  0  0  0
   56.3536   81.3900   25.5501 H   0  0  0  0  0  0  0  0  0  0  0  0
   56.2857   83.7638   26.3016 H   0  0  0  0  0  0  0  0  0  0  0  0
  1  2  2  0
  2  3  1  0
  3  4  2  0
  4  5  1  0
  5  6  1  0
  6  7  2  0
  7  8  1  0
  8  9  2  0
  9 10  1  0
 10 11  1  0
 11 12  1  0
 12 13  1  0
 13 14  1  0
 14 15  2  0
 15 16  1  0
 16 17  1  0
 17 18  1  0
 18 19  1  0
 19 20  2  0
 20 21  1  0
 21 22  2  0
 22 23  1  0
 23 24  2  0
 17 25  2  0
 25 26  1  0
 26 27  2  0
 27 28  1  0
 11 29  2  0
 29 30  1  0
  4 31  1  0
 31 32  2  0
 32  1  1  0
 30  6  1  0
 30  9  1  0
 28 14  1  0
 27 16  1  0
 24 19  1  0
  1 33  1  0
  2 34  1  0
  3 35  1  0
  5 36  1  0
  5 37  1  0
 18 38  1  0
 18 39  1  0
 20 40  1  0
 21 41  1  0
 22 42  1  0
 23 43  1  0
 24 44  1  0
 31 45  1  0
 32 46  1  0
M  END
>  <meeko>  (1) 
{"is_sidechain": false}

>  <smiles>  (1) 
c1ccc(Cc2nnc3sc(SSc4nn5c(Cc6ccccc6)nnc5s4)nn23)cc1

>  <vina_score>  (1) 
-8.503

>  <job_id>  (1) 
386432b78b810031

$$$$
