
     RDKit          3D

 56 60  0  0  0  0  0  0  0  0999 V2000
   62.6860   81.3790   36.9380 Cl  0  0  0  0  0  0  0  0  0  0  0  0
   62.5560   80.1120   35.6730 C   0  0  0  0  0  0  0  0  0  0  0  0
   63.0290   80.6530   34.3270 C   0  0  0  0  0  0  0  0  0  0  0  0
   62.0280   81.6370   33.7180 C   0  0  0  0  0  0  0  0  0  0  0  0
   60.7070   81.0200   33.6130 N   0  0  0  0  0  0  0  0  0  0  0  0
   59.7640   81.8000   32.8070 C   0  0  0  0  0  0  0  0  0  0  0  0
   60.3080   83.1250   32.5680 O   0  0  0  0  0  0  0  0  0  0  0  0
   60.4480   83.3660   31.1530 C   0  0  0  0  0  0  0  0  0  0  0  0
   59.8080   82.2060   30.4910 C   0  0  0  0  0  0  0  0  0  0  0  0
   59.5890   81.9850   29.1450 C   0  0  0  0  0  0  0  0  0  0  0  0
   58.9380   80.8070   28.7610 C   0  0  0  0  0  0  0  0  0  0  0  0
   58.5100   79.8570   29.7050 C   0  0  0  0  0  0  0  0  0  0  0  0
   57.8200   78.6870   29.3690 N   0  0  0  0  0  0  0  0  0  0  0  0
   56.5180   78.4060   28.9650 C   0  0  0  0  0  0  0  0  0  0  0  0
   55.9350   77.3990   29.6300 N   0  0  0  0  0  0  0  0  0  0  0  0
   54.6800   77.0900   29.2750 C   0  0  0  0  0  0  0  0  0  0  0  0
   53.9830   77.7610   28.3010 C   0  0  0  0  0  0  0  0  0  0  0  0
   54.6320   78.8040   27.6730 C   0  0  0  0  0  0  0  0  0  0  0  0
   54.0060   79.5280   26.6620 N   0  0  0  0  0  0  0  0  0  0  0  0
   54.0600   78.9460   25.3130 C   0  0  0  0  0  0  0  0  0  0  0  0
   53.2400   79.8060   24.3250 C   0  0  0  0  0  0  0  0  0  0  0  0
   53.6590   81.2170   24.2160 N   0  0  0  0  0  0  0  0  0  0  0  0
   54.4350   81.6400   25.3950 C   0  0  0  0  0  0  0  0  0  0  0  0
   53.9950   81.0010   26.7330 C   0  0  0  0  0  0  0  0  0  0  0  0
   55.9030   79.1070   28.0000 N   0  0  0  0  0  0  0  0  0  0  0  0
   58.7420   80.1270   31.0670 C   0  0  0  0  0  0  0  0  0  0  0  0
   59.4090   81.2870   31.4460 C   0  0  0  0  0  0  0  0  0  0  0  0
   60.1820   80.6070   34.9170 C   0  0  0  0  0  0  0  0  0  0  0  0
   61.1220   79.5970   35.5790 C   0  0  0  0  0  0  0  0  0  0  0  0
   63.2054   79.2690   35.9517 H   0  0  0  0  0  0  0  0  0  0  0  0
   63.9904   81.1680   34.4698 H   0  0  0  0  0  0  0  0  0  0  0  0
   63.1304   79.8024   33.6369 H   0  0  0  0  0  0  0  0  0  0  0  0
   61.9616   82.5292   34.3580 H   0  0  0  0  0  0  0  0  0  0  0  0
   62.3715   81.9186   32.7117 H   0  0  0  0  0  0  0  0  0  0  0  0
   58.8510   81.7562   33.4190 H   0  0  0  0  0  0  0  0  0  0  0  0
   59.9398   84.2995   30.8695 H   0  0  0  0  0  0  0  0  0  0  0  0
   61.5024   83.4742   30.8589 H   0  0  0  0  0  0  0  0  0  0  0  0
   59.9184   82.7173   28.3931 H   0  0  0  0  0  0  0  0  0  0  0  0
   58.7564   80.6195   27.6924 H   0  0  0  0  0  0  0  0  0  0  0  0
   58.3680   77.8440   29.2800 H   0  0  0  0  0  0  0  0  0  0  0  0
   54.1827   76.2554   29.7909 H   0  0  0  0  0  0  0  0  0  0  0  0
   52.9538   77.4798   28.0334 H   0  0  0  0  0  0  0  0  0  0  0  0
   55.1066   78.9055   24.9768 H   0  0  0  0  0  0  0  0  0  0  0  0
   53.6346   77.9320   25.3433 H   0  0  0  0  0  0  0  0  0  0  0  0
   53.3228   79.3493   23.3277 H   0  0  0  0  0  0  0  0  0  0  0  0
   52.2130   79.8241   24.7187 H   0  0  0  0  0  0  0  0  0  0  0  0
   54.2390   81.3360   23.3860 H   0  0  0  0  0  0  0  0  0  0  0  0
   55.4889   81.3768   25.2218 H   0  0  0  0  0  0  0  0  0  0  0  0
   54.2658   82.7217   25.5015 H   0  0  0  0  0  0  0  0  0  0  0  0
   54.6841   81.3251   27.5268 H   0  0  0  0  0  0  0  0  0  0  0  0
   52.9665   81.3269   26.9476 H   0  0  0  0  0  0  0  0  0  0  0  0
   58.3948   79.4186   31.8335 H   0  0  0  0  0  0  0  0  0  0  0  0
   60.0863   81.4908   35.5649 H   0  0  0  0  0  0  0  0  0  0  0  0
   59.1992   80.1350   34.7710 H   0  0  0  0  0  0  0  0  0  0  0  0
   60.7552   79.3857   36.5943 H   0  0  0  0  0  0  0  0  0  0  0  0
   61.1314   78.6897   34.9571 H   0  0  0  0  0  0  0  0  0  0  0  0
  1  2  1  0
  2  3  1  0
  3  4  1  0
  4  5  1  0
  5  6  1  0
  6  7  1  0
  7  8  1  0
  8  9  1  0
  9 10  1  0
 10 11  2  0
 11 12  1  0
 12 13  1  0
 13 14  1  0
 14 15  2  0
 15 16  1  0
 16 17  2  0
 17 18  1  0
 18 19  1  0
 19 20  1  0
 20 21  1  0
 21 22  1  0
 22 23  1  0
 23 24  1  0
 18 25  2  0
 12 26  2  0
 26 27  1  0
  5 28  1  0
 28 29  1  0
 29  2  1  0
 27  6  1  0
 27  9  2  0
 25 14  1  0
 24 19  1  0
  2 30  1  0
  3 31  1  0
  3 32  1  0
  4 33  1  0
  4 34  1  0
  6 35  1  0
  8 36  1  0
  8 37  1  0
 10 38  1  0
 11 39  1  0
 13 40  1  0
 16 41  1  0
 17 42  1  0
 20 43  1  0
 20 44  1  0
 21 45  1  0
 21 46  1  0
 22 47  1  0
 23 48  1  0
 23 49  1  0
 24 50  1  0
 24 51  1  0
 26 52  1  0
 28 53  1  0
 28 54  1  0
 29 55  1  0
 29 56  1  0
M  END
>  <meeko>  (1) 
{"is_sidechain": false}

>  <smiles>  (1) 
ClC1CCN(C2OCc3ccc(Nc4nccc(N5CCNCC5)n4)cc32)CC1

>  <vina_score>  (1) 
-9.205

>  <job_id>  (1) 
394ff9fedc497bd9

$$$$
