
     RDKit          3D

 54 56  0  0  0  0  0  0  0  0999 V2000
   53.6870   78.6010   24.2700 C   0  0  0  0  0  0  0  0  0  0  0  0
   53.3990   79.9880   24.8350 C   0  0  1  0  0  0  0  0  0  0  0  0
   51.9960   80.2320   24.6800 O   0  0  0  0  0  0  0  0  0  0  0  0
   53.8250   80.1840   26.3190 C   0  0  1  0  0  0  0  0  0  0  0  0
   53.3640   81.5260   26.8950 C   0  0  0  0  0  0  0  0  0  0  0  0
   53.3060   79.0700   27.1250 N   0  0  0  0  0  0  0  0  0  0  0  0
   54.2250   78.3130   27.8740 C   0  0  0  0  0  0  0  0  0  0  0  0
   55.4590   78.8100   28.0960 N   0  0  0  0  0  0  0  0  0  0  0  0
   56.3520   78.0650   28.7730 C   0  0  0  0  0  0  0  0  0  0  0  0
   57.5910   78.6690   28.9620 N   0  0  0  0  0  0  0  0  0  0  0  0
   58.0260   79.8140   29.6350 C   0  0  0  0  0  0  0  0  0  0  0  0
   58.5810   80.9310   28.9980 C   0  0  0  0  0  0  0  0  0  0  0  0
   58.9850   82.0580   29.7240 C   0  0  0  0  0  0  0  0  0  0  0  0
   58.8220   82.0790   31.1080 C   0  0  0  0  0  0  0  0  0  0  0  0
   59.3240   83.5140   32.0280 S   0  0  0  0  0  0  0  0  0  0  0  0
   59.9030   83.0300   33.2700 O   0  0  0  0  0  0  0  0  0  0  0  0
   58.1980   84.4310   32.0740 O   0  0  0  0  0  0  0  0  0  0  0  0
   60.6430   84.2430   31.0680 C   0  0  0  0  0  0  0  0  0  0  0  0
   61.9940   83.7700   31.5360 C   0  0  0  0  0  0  0  0  0  0  0  0
   62.5230   82.5510   31.0820 C   0  0  0  0  0  0  0  0  0  0  0  0
   63.7680   82.1050   31.5300 C   0  0  0  0  0  0  0  0  0  0  0  0
   64.4900   82.8810   32.4300 C   0  0  0  0  0  0  0  0  0  0  0  0
   65.7080   82.4830   32.8950 O   0  0  0  0  0  0  0  0  0  0  0  0
   63.9880   84.0930   32.8850 C   0  0  0  0  0  0  0  0  0  0  0  0
   62.7440   84.5400   32.4380 C   0  0  0  0  0  0  0  0  0  0  0  0
   58.2940   80.9740   31.7740 C   0  0  0  0  0  0  0  0  0  0  0  0
   57.8940   79.8570   31.0350 C   0  0  0  0  0  0  0  0  0  0  0  0
   56.0830   76.8340   29.2290 N   0  0  0  0  0  0  0  0  0  0  0  0
   54.8540   76.3450   28.9830 C   0  0  0  0  0  0  0  0  0  0  0  0
   53.8820   77.0400   28.3050 C   0  0  0  0  0  0  0  0  0  0  0  0
   52.1840   76.2650   28.0200 Br  0  0  0  0  0  0  0  0  0  0  0  0
   53.8344   77.8914   25.0975 H   0  0  0  0  0  0  0  0  0  0  0  0
   52.8378   78.2730   23.6525 H   0  0  0  0  0  0  0  0  0  0  0  0
   54.5966   78.6382   23.6525 H   0  0  0  0  0  0  0  0  0  0  0  0
   54.0090   80.7117   24.2745 H   0  0  0  0  0  0  0  0  0  0  0  0
   51.6560   80.5110   25.5480 H   0  0  0  0  0  0  0  0  0  0  0  0
   54.9244   80.1930   26.3534 H   0  0  0  0  0  0  0  0  0  0  0  0
   53.3804   81.4784   27.9938 H   0  0  0  0  0  0  0  0  0  0  0  0
   54.0397   82.3236   26.5524 H   0  0  0  0  0  0  0  0  0  0  0  0
   52.3408   81.7400   26.5524 H   0  0  0  0  0  0  0  0  0  0  0  0
   52.5220   79.3410   27.7150 H   0  0  0  0  0  0  0  0  0  0  0  0
   58.2910   78.1320   28.4720 H   0  0  0  0  0  0  0  0  0  0  0  0
   58.7020   80.9227   27.9047 H   0  0  0  0  0  0  0  0  0  0  0  0
   59.4281   82.9210   29.2055 H   0  0  0  0  0  0  0  0  0  0  0  0
   60.5128   83.9637   30.0120 H   0  0  0  0  0  0  0  0  0  0  0  0
   60.5977   85.3349   31.1932 H   0  0  0  0  0  0  0  0  0  0  0  0
   61.9512   81.9417   30.3666 H   0  0  0  0  0  0  0  0  0  0  0  0
   64.1746   81.1470   31.1737 H   0  0  0  0  0  0  0  0  0  0  0  0
   66.1640   81.9950   32.1890 H   0  0  0  0  0  0  0  0  0  0  0  0
   64.5692   84.6990   33.5957 H   0  0  0  0  0  0  0  0  0  0  0  0
   62.3487   85.5024   32.7951 H   0  0  0  0  0  0  0  0  0  0  0  0
   58.1932   80.9810   32.8694 H   0  0  0  0  0  0  0  0  0  0  0  0
   57.4657   78.9908   31.5607 H   0  0  0  0  0  0  0  0  0  0  0  0
   54.6144   75.3340   29.3443 H   0  0  0  0  0  0  0  0  0  0  0  0
  1  2  1  0
  2  3  1  0
  2  4  1  0
  4  5  1  0
  4  6  1  0
  6  7  1  0
  7  8  2  0
  8  9  1  0
  9 10  1  0
 10 11  1  0
 11 12  1  0
 12 13  2  0
 13 14  1  0
 14 15  1  0
 15 16  2  0
 15 17  2  0
 15 18  1  0
 18 19  1  0
 19 20  1  0
 20 21  2  0
 21 22  1  0
 22 23  1  0
 22 24  2  0
 24 25  1  0
 14 26  2  0
 26 27  1  0
  9 28  2  0
 28 29  1  0
 29 30  2  0
 30 31  1  0
 30  7  1  0
 27 11  2  0
 25 19  2  0
  1 32  1  0
  1 33  1  0
  1 34  1  0
  2 35  1  6
  3 36  1  0
  4 37  1  6
  5 38  1  0
  5 39  1  0
  5 40  1  0
  6 41  1  0
 10 42  1  0
 12 43  1  0
 13 44  1  0
 18 45  1  0
 18 46  1  0
 20 47  1  0
 21 48  1  0
 23 49  1  0
 24 50  1  0
 25 51  1  0
 26 52  1  0
 27 53  1  0
 29 54  1  0
M  END
>  <meeko>  (1) 
{"is_sidechain": false}

>  <smiles>  (1) 
C[C@@H](O)[C@@H](C)Nc1nc(Nc2ccc(S(=O)(=O)Cc3ccc(O)cc3)cc2)ncc1Br

>  <vina_score>  (1) 
-8.032

>  <job_id>  (1) 
3962e0b73a236af3

$$$$
