
     RDKit          3D

 45 47  0  0  0  0  0  0  0  0999 V2000
   52.0520   75.8070   27.4900 C   0  0  0  0  0  0  0  0  0  0  0  0
   53.1520   76.7990   27.7220 C   0  0  0  0  0  0  0  0  0  0  0  0
   54.0600   76.6200   28.7700 C   0  0  0  0  0  0  0  0  0  0  0  0
   55.1090   77.5260   28.9720 C   0  0  0  0  0  0  0  0  0  0  0  0
   55.2710   78.6200   28.1230 C   0  0  0  0  0  0  0  0  0  0  0  0
   56.2980   79.5770   28.2530 N   0  0  0  0  0  0  0  0  0  0  0  0
   57.6660   79.3680   28.2050 C   0  0  0  0  0  0  0  0  0  0  0  0
   58.2280   78.2910   28.0200 O   0  0  0  0  0  0  0  0  0  0  0  0
   58.4920   80.6440   28.3330 C   0  0  0  0  0  0  0  0  0  0  0  0
   59.0450   80.9130   29.7120 C   0  0  0  0  0  0  0  0  0  0  0  0
   58.5480   80.2320   30.8250 C   0  0  0  0  0  0  0  0  0  0  0  0
   59.0510   80.4990   32.1060 C   0  0  0  0  0  0  0  0  0  0  0  0
   60.0650   81.4430   32.3290 C   0  0  0  0  0  0  0  0  0  0  0  0
   60.5520   81.7030   33.5960 N   0  0  0  0  0  0  0  0  0  0  0  0
   61.6380   82.6650   33.8410 C   0  0  0  0  0  0  0  0  0  0  0  0
   61.5610   83.1910   35.2840 C   0  0  0  0  0  0  0  0  0  0  0  0
   61.6630   82.1690   36.2860 O   0  0  0  0  0  0  0  0  0  0  0  0
   61.1850   80.8910   35.8430 C   0  0  0  0  0  0  0  0  0  0  0  0
   60.0740   80.9690   34.7810 C   0  0  0  0  0  0  0  0  0  0  0  0
   60.5530   82.1070   31.1940 C   0  0  0  0  0  0  0  0  0  0  0  0
   60.0600   81.8510   29.9070 C   0  0  0  0  0  0  0  0  0  0  0  0
   54.3720   78.7900   27.0640 C   0  0  0  0  0  0  0  0  0  0  0  0
   53.3240   77.8860   26.8610 C   0  0  0  0  0  0  0  0  0  0  0  0
   51.6638   75.4569   28.4579 H   0  0  0  0  0  0  0  0  0  0  0  0
   51.2411   76.2851   26.9210 H   0  0  0  0  0  0  0  0  0  0  0  0
   52.4441   74.9512   26.9210 H   0  0  0  0  0  0  0  0  0  0  0  0
   53.9493   75.7576   29.4438 H   0  0  0  0  0  0  0  0  0  0  0  0
   55.8097   77.3733   29.8061 H   0  0  0  0  0  0  0  0  0  0  0  0
   55.9920   80.5190   28.4650 H   0  0  0  0  0  0  0  0  0  0  0  0
   59.3385   80.5736   27.6341 H   0  0  0  0  0  0  0  0  0  0  0  0
   57.8077   81.4758   28.1096 H   0  0  0  0  0  0  0  0  0  0  0  0
   57.7556   79.4801   30.6957 H   0  0  0  0  0  0  0  0  0  0  0  0
   58.6371   79.9503   32.9648 H   0  0  0  0  0  0  0  0  0  0  0  0
   62.6068   82.1675   33.6861 H   0  0  0  0  0  0  0  0  0  0  0  0
   61.5357   83.5095   33.1435 H   0  0  0  0  0  0  0  0  0  0  0  0
   62.3828   83.9064   35.4353 H   0  0  0  0  0  0  0  0  0  0  0  0
   60.5693   83.6524   35.4011 H   0  0  0  0  0  0  0  0  0  0  0  0
   62.0323   80.3343   35.4162 H   0  0  0  0  0  0  0  0  0  0  0  0
   60.7491   80.3935   36.7219 H   0  0  0  0  0  0  0  0  0  0  0  0
   59.7830   79.9505   34.4844 H   0  0  0  0  0  0  0  0  0  0  0  0
   59.2086   81.4987   35.2058 H   0  0  0  0  0  0  0  0  0  0  0  0
   61.3503   82.8546   31.3181 H   0  0  0  0  0  0  0  0  0  0  0  0
   60.4759   82.3930   29.0449 H   0  0  0  0  0  0  0  0  0  0  0  0
   54.4910   79.6453   26.3826 H   0  0  0  0  0  0  0  0  0  0  0  0
   52.6314   78.0316   26.0189 H   0  0  0  0  0  0  0  0  0  0  0  0
  1  2  1  0
  2  3  1  0
  3  4  2  0
  4  5  1  0
  5  6  1  0
  6  7  1  0
  7  8  2  0
  7  9  1  0
  9 10  1  0
 10 11  1  0
 11 12  2  0
 12 13  1  0
 13 14  1  0
 14 15  1  0
 15 16  1  0
 16 17  1  0
 17 18  1  0
 18 19  1  0
 13 20  2  0
 20 21  1  0
  5 22  2  0
 22 23  1  0
 23  2  2  0
 21 10  2  0
 19 14  1  0
  1 24  1  0
  1 25  1  0
  1 26  1  0
  3 27  1  0
  4 28  1  0
  6 29  1  0
  9 30  1  0
  9 31  1  0
 11 32  1  0
 12 33  1  0
 15 34  1  0
 15 35  1  0
 16 36  1  0
 16 37  1  0
 18 38  1  0
 18 39  1  0
 19 40  1  0
 19 41  1  0
 20 42  1  0
 21 43  1  0
 22 44  1  0
 23 45  1  0
M  END
>  <meeko>  (1) 
{"is_sidechain": false}

>  <smiles>  (1) 
Cc1ccc(NC(=O)Cc2ccc(N3CCOCC3)cc2)cc1

>  <vina_score>  (1) 
-7.829

>  <job_id>  (1) 
398e5d88a0ae0142

$$$$
