
     RDKit          3D

 69 72  0  0  0  0  0  0  0  0999 V2000
   57.0130   81.3250   27.2710 C   0  0  0  0  0  0  0  0  0  0  0  0
   58.1730   80.6080   27.6990 O   0  0  0  0  0  0  0  0  0  0  0  0
   58.2570   80.6310   29.0750 C   0  0  0  0  0  0  0  0  0  0  0  0
   58.6530   81.8140   29.7160 C   0  0  0  0  0  0  0  0  0  0  0  0
   58.7310   81.8980   31.1100 C   0  0  0  0  0  0  0  0  0  0  0  0
   59.1380   83.0470   31.7940 N   0  0  0  0  0  0  0  0  0  0  0  0
   59.6340   82.9650   33.1840 C   0  0  0  0  0  0  0  0  0  0  0  0
   61.1480   82.6770   33.2350 C   0  0  0  0  0  0  0  0  0  0  0  0
   61.9330   83.5740   32.3720 N   0  0  0  0  0  0  0  0  0  0  0  0
   63.2930   83.8030   32.5490 C   0  0  0  0  0  0  0  0  0  0  0  0
   63.8880   83.4110   33.8780 C   0  0  0  0  0  0  0  0  0  0  0  0
   64.0000   84.3190   31.6840 O   0  0  0  0  0  0  0  0  0  0  0  0
   61.3890   83.7770   31.0200 C   0  0  0  0  0  0  0  0  0  0  0  0
   59.8790   84.0740   31.0200 C   0  0  0  0  0  0  0  0  0  0  0  0
   58.4290   80.7190   31.8120 C   0  0  0  0  0  0  0  0  0  0  0  0
   58.0070   79.5400   31.1720 C   0  0  0  0  0  0  0  0  0  0  0  0
   57.8830   79.4820   29.7890 C   0  0  0  0  0  0  0  0  0  0  0  0
   57.4680   78.3490   29.0790 N   0  0  0  0  0  0  0  0  0  0  0  0
   56.2380   77.7640   28.8180 C   0  0  0  0  0  0  0  0  0  0  0  0
   55.9340   76.7050   29.5790 N   0  0  0  0  0  0  0  0  0  0  0  0
   54.7540   76.0980   29.3530 C   0  0  0  0  0  0  0  0  0  0  0  0
   53.8470   76.4950   28.3950 C   0  0  0  0  0  0  0  0  0  0  0  0
   52.5610   75.7600   28.2040 C   0  0  0  0  0  0  0  0  0  0  0  0
   54.2230   77.6160   27.6660 C   0  0  0  0  0  0  0  0  0  0  0  0
   53.3490   78.1810   26.5420 C   0  0  0  0  0  0  0  0  0  0  0  0
   52.9960   77.2410   25.6210 F   0  0  0  0  0  0  0  0  0  0  0  0
   52.1730   78.6770   27.0170 F   0  0  0  0  0  0  0  0  0  0  0  0
   54.0430   79.2710   25.8600 N   0  0  0  0  0  0  0  0  0  0  0  0
   53.3560   80.5600   25.9550 C   0  0  0  0  0  0  0  0  0  0  0  0
   53.7320   81.3960   24.7230 C   0  0  0  0  0  0  0  0  0  0  0  0
   52.9430   82.7080   24.6600 C   0  0  0  0  0  0  0  0  0  0  0  0
   52.5120   83.2320   26.0290 C   0  0  0  0  0  0  0  0  0  0  0  0
   53.5130   82.8580   27.1110 C   0  0  0  0  0  0  0  0  0  0  0  0
   53.6850   81.3400   27.2440 C   0  0  0  0  0  0  0  0  0  0  0  0
   55.4230   78.2320   27.8680 N   0  0  0  0  0  0  0  0  0  0  0  0
   56.4513   81.6722   28.1507 H   0  0  0  0  0  0  0  0  0  0  0  0
   57.3197   82.1913   26.6665 H   0  0  0  0  0  0  0  0  0  0  0  0
   56.3753   80.6633   26.6665 H   0  0  0  0  0  0  0  0  0  0  0  0
   58.9079   82.6952   29.1090 H   0  0  0  0  0  0  0  0  0  0  0  0
   59.4362   83.9216   33.6898 H   0  0  0  0  0  0  0  0  0  0  0  0
   59.1111   82.1374   33.6856 H   0  0  0  0  0  0  0  0  0  0  0  0
   61.4931   82.7979   34.2724 H   0  0  0  0  0  0  0  0  0  0  0  0
   61.3005   81.6511   32.8686 H   0  0  0  0  0  0  0  0  0  0  0  0
   63.2694   83.8185   34.6912 H   0  0  0  0  0  0  0  0  0  0  0  0
   63.9202   82.3143   33.9561 H   0  0  0  0  0  0  0  0  0  0  0  0
   64.9084   83.8143   33.9561 H   0  0  0  0  0  0  0  0  0  0  0  0
   61.9133   84.6245   30.5544 H   0  0  0  0  0  0  0  0  0  0  0  0
   61.5415   82.8430   30.4593 H   0  0  0  0  0  0  0  0  0  0  0  0
   59.7060   85.0612   31.4733 H   0  0  0  0  0  0  0  0  0  0  0  0
   59.5177   84.0601   29.9811 H   0  0  0  0  0  0  0  0  0  0  0  0
   58.5267   80.7181   32.9077 H   0  0  0  0  0  0  0  0  0  0  0  0
   57.7716   78.6506   31.7749 H   0  0  0  0  0  0  0  0  0  0  0  0
   58.1860   77.9230   28.5080 H   0  0  0  0  0  0  0  0  0  0  0  0
   54.4969   75.2274   29.9743 H   0  0  0  0  0  0  0  0  0  0  0  0
   52.1301   75.5137   29.1857 H   0  0  0  0  0  0  0  0  0  0  0  0
   51.8572   76.3922   27.6428 H   0  0  0  0  0  0  0  0  0  0  0  0
   52.7485   74.8327   27.6428 H   0  0  0  0  0  0  0  0  0  0  0  0
   54.9520   79.3290   26.3140 H   0  0  0  0  0  0  0  0  0  0  0  0
   52.2745   80.3623   25.9915 H   0  0  0  0  0  0  0  0  0  0  0  0
   54.8062   81.6288   24.7656 H   0  0  0  0  0  0  0  0  0  0  0  0
   53.4887   80.8086   23.8254 H   0  0  0  0  0  0  0  0  0  0  0  0
   53.5742   83.4700   24.1795 H   0  0  0  0  0  0  0  0  0  0  0  0
   52.0245   82.5036   24.0903 H   0  0  0  0  0  0  0  0  0  0  0  0
   52.4295   84.3279   25.9822 H   0  0  0  0  0  0  0  0  0  0  0  0
   51.5437   82.7761   26.2831 H   0  0  0  0  0  0  0  0  0  0  0  0
   54.4871   83.3040   26.8614 H   0  0  0  0  0  0  0  0  0  0  0  0
   53.1310   83.2390   28.0696 H   0  0  0  0  0  0  0  0  0  0  0  0
   54.7300   81.1322   27.5177 H   0  0  0  0  0  0  0  0  0  0  0  0
   52.9731   81.0034   28.0121 H   0  0  0  0  0  0  0  0  0  0  0  0
  1  2  1  0
  2  3  1  0
  3  4  1  0
  4  5  2  0
  5  6  1  0
  6  7  1  0
  7  8  1  0
  8  9  1  0
  9 10  1  0
 10 11  1  0
 10 12  2  0
  9 13  1  0
 13 14  1  0
  5 15  1  0
 15 16  2  0
 16 17  1  0
 17 18  1  0
 18 19  1  0
 19 20  2  0
 20 21  1  0
 21 22  2  0
 22 23  1  0
 22 24  1  0
 24 25  1  0
 25 26  1  0
 25 27  1  0
 25 28  1  0
 28 29  1  0
 29 30  1  0
 30 31  1  0
 31 32  1  0
 32 33  1  0
 33 34  1  0
 24 35  2  0
 17  3  2  0
 35 19  1  0
 14  6  1  0
 34 29  1  0
  1 36  1  0
  1 37  1  0
  1 38  1  0
  4 39  1  0
  7 40  1  0
  7 41  1  0
  8 42  1  0
  8 43  1  0
 11 44  1  0
 11 45  1  0
 11 46  1  0
 13 47  1  0
 13 48  1  0
 14 49  1  0
 14 50  1  0
 15 51  1  0
 16 52  1  0
 18 53  1  0
 21 54  1  0
 23 55  1  0
 23 56  1  0
 23 57  1  0
 28 58  1  0
 29 59  1  0
 30 60  1  0
 30 61  1  0
 31 62  1  0
 31 63  1  0
 32 64  1  0
 32 65  1  0
 33 66  1  0
 33 67  1  0
 34 68  1  0
 34 69  1  0
M  END
>  <meeko>  (1) 
{"is_sidechain": false}

>  <smiles>  (1) 
COc1cc(N2CCN(C(C)=O)CC2)ccc1Nc1ncc(C)c(C(F)(F)NC2CCCCC2)n1

>  <vina_score>  (1) 
-8.188

>  <job_id>  (1) 
39ab5cd7d66431c1

$$$$
