
     RDKit          3D

 53 55  0  0  0  0  0  0  0  0999 V2000
   58.8290   84.5270   32.4490 C   0  0  0  0  0  0  0  0  0  0  0  0
   59.5710   83.1930   32.5680 C   0  0  0  0  0  0  0  0  0  0  0  0
   60.3400   83.1480   33.8870 C   0  0  0  0  0  0  0  0  0  0  0  0
   58.5930   82.0160   32.4900 C   0  0  0  0  0  0  0  0  0  0  0  0
   57.8860   81.7220   33.4570 O   0  0  0  0  0  0  0  0  0  0  0  0
   58.5730   81.2600   31.3190 N   0  0  0  0  0  0  0  0  0  0  0  0
   57.5620   80.1920   31.2430 C   0  0  0  0  0  0  0  0  0  0  0  0
   57.9200   79.0950   30.2250 C   0  0  0  0  0  0  0  0  0  0  0  0
   58.2260   79.6850   28.8990 N   0  0  0  0  0  0  0  0  0  0  0  0
   57.1550   79.8830   28.0260 C   0  0  0  0  0  0  0  0  0  0  0  0
   57.0580   81.0580   27.2700 C   0  0  0  0  0  0  0  0  0  0  0  0
   55.9900   81.2980   26.3890 C   0  0  0  0  0  0  0  0  0  0  0  0
   54.9460   80.3830   26.2180 C   0  0  0  0  0  0  0  0  0  0  0  0
   53.9000   80.6200   25.3370 N   0  0  0  0  0  0  0  0  0  0  0  0
   53.2290   79.5170   24.6410 C   0  0  0  0  0  0  0  0  0  0  0  0
   52.6150   80.0160   23.3360 C   0  0  0  0  0  0  0  0  0  0  0  0
   51.6120   81.1430   23.5760 C   0  0  0  0  0  0  0  0  0  0  0  0
   50.2890   80.6080   23.5190 O   0  0  0  0  0  0  0  0  0  0  0  0
   51.8100   81.8480   24.9140 C   0  0  0  0  0  0  0  0  0  0  0  0
   53.2870   81.9520   25.2740 C   0  0  0  0  0  0  0  0  0  0  0  0
   55.0310   79.2190   26.9890 C   0  0  0  0  0  0  0  0  0  0  0  0
   56.0980   78.9810   27.8750 C   0  0  0  0  0  0  0  0  0  0  0  0
   59.3200   80.6710   28.9890 C   0  0  0  0  0  0  0  0  0  0  0  0
   59.0100   81.7820   30.0120 C   0  0  0  0  0  0  0  0  0  0  0  0
   58.6121   84.9169   33.4545 H   0  0  0  0  0  0  0  0  0  0  0  0
   59.4558   85.2478   31.9035 H   0  0  0  0  0  0  0  0  0  0  0  0
   57.8860   84.3747   31.9035 H   0  0  0  0  0  0  0  0  0  0  0  0
   60.2779   83.1089   31.7294 H   0  0  0  0  0  0  0  0  0  0  0  0
   59.6306   83.1895   34.7266 H   0  0  0  0  0  0  0  0  0  0  0  0
   60.9191   82.2144   33.9421 H   0  0  0  0  0  0  0  0  0  0  0  0
   61.0241   84.0077   33.9421 H   0  0  0  0  0  0  0  0  0  0  0  0
   57.4652   79.7299   32.2365 H   0  0  0  0  0  0  0  0  0  0  0  0
   56.6205   80.6538   30.9109 H   0  0  0  0  0  0  0  0  0  0  0  0
   58.8001   78.5423   30.5853 H   0  0  0  0  0  0  0  0  0  0  0  0
   57.0592   78.4184   30.1192 H   0  0  0  0  0  0  0  0  0  0  0  0
   57.8454   81.8196   27.3694 H   0  0  0  0  0  0  0  0  0  0  0  0
   55.9745   82.2362   25.8150 H   0  0  0  0  0  0  0  0  0  0  0  0
   53.9619   78.7272   24.4195 H   0  0  0  0  0  0  0  0  0  0  0  0
   52.4312   79.1178   25.2845 H   0  0  0  0  0  0  0  0  0  0  0  0
   53.4188   80.3876   22.6834 H   0  0  0  0  0  0  0  0  0  0  0  0
   52.0809   79.1769   22.8664 H   0  0  0  0  0  0  0  0  0  0  0  0
   51.7738   81.8948   22.7894 H   0  0  0  0  0  0  0  0  0  0  0  0
   49.8660   80.7740   24.3800 H   0  0  0  0  0  0  0  0  0  0  0  0
   51.3846   82.8605   24.8515 H   0  0  0  0  0  0  0  0  0  0  0  0
   51.3041   81.2597   25.6937 H   0  0  0  0  0  0  0  0  0  0  0  0
   53.8036   82.5516   24.5101 H   0  0  0  0  0  0  0  0  0  0  0  0
   53.3780   82.4305   26.2603 H   0  0  0  0  0  0  0  0  0  0  0  0
   54.2364   78.4636   26.8996 H   0  0  0  0  0  0  0  0  0  0  0  0
   56.1003   78.0547   28.4682 H   0  0  0  0  0  0  0  0  0  0  0  0
   60.2412   80.1532   29.2945 H   0  0  0  0  0  0  0  0  0  0  0  0
   59.4379   81.1404   28.0012 H   0  0  0  0  0  0  0  0  0  0  0  0
   59.9188   82.3835   30.1615 H   0  0  0  0  0  0  0  0  0  0  0  0
   58.1818   82.3805   29.6047 H   0  0  0  0  0  0  0  0  0  0  0  0
  1  2  1  0
  2  3  1  0
  2  4  1  0
  4  5  2  0
  4  6  1  0
  6  7  1  0
  7  8  1  0
  8  9  1  0
  9 10  1  0
 10 11  1  0
 11 12  2  0
 12 13  1  0
 13 14  1  0
 14 15  1  0
 15 16  1  0
 16 17  1  0
 17 18  1  0
 17 19  1  0
 19 20  1  0
 13 21  2  0
 21 22  1  0
  9 23  1  0
 23 24  1  0
 24  6  1  0
 22 10  2  0
 20 14  1  0
  1 25  1  0
  1 26  1  0
  1 27  1  0
  2 28  1  0
  3 29  1  0
  3 30  1  0
  3 31  1  0
  7 32  1  0
  7 33  1  0
  8 34  1  0
  8 35  1  0
 11 36  1  0
 12 37  1  0
 15 38  1  0
 15 39  1  0
 16 40  1  0
 16 41  1  0
 17 42  1  0
 18 43  1  0
 19 44  1  0
 19 45  1  0
 20 46  1  0
 20 47  1  0
 21 48  1  0
 22 49  1  0
 23 50  1  0
 23 51  1  0
 24 52  1  0
 24 53  1  0
M  END
>  <meeko>  (1) 
{"is_sidechain": false}

>  <smiles>  (1) 
CC(C)C(=O)N1CCN(c2ccc(N3CCC(O)CC3)cc2)CC1

>  <vina_score>  (1) 
-6.497

>  <job_id>  (1) 
39da85cffb9bb2f1

$$$$
