
     RDKit          3D

 47 49  0  0  0  0  0  0  0  0999 V2000
   56.0660   80.5730   26.7480 C   0  0  0  0  0  0  0  0  0  0  0  0
   55.6440   79.4110   27.6060 C   0  0  0  0  0  0  0  0  0  0  0  0
   54.3030   78.9930   27.5760 C   0  0  0  0  0  0  0  0  0  0  0  0
   53.8730   77.9190   28.3550 C   0  0  0  0  0  0  0  0  0  0  0  0
   54.7800   77.2410   29.1640 C   0  0  0  0  0  0  0  0  0  0  0  0
   56.1170   77.6370   29.1910 C   0  0  0  0  0  0  0  0  0  0  0  0
   56.5620   78.7220   28.4220 C   0  0  0  0  0  0  0  0  0  0  0  0
   57.9400   79.0480   28.4260 N   0  0  0  0  0  0  0  0  0  0  0  0
   58.5820   79.9330   29.3290 C   0  0  0  0  0  0  0  0  0  0  0  0
   58.3150   79.8110   30.6940 C   0  0  0  0  0  0  0  0  0  0  0  0
   58.8850   80.6930   31.6240 C   0  0  0  0  0  0  0  0  0  0  0  0
   59.7300   81.7410   31.2290 C   0  0  0  0  0  0  0  0  0  0  0  0
   60.2960   82.6030   32.1690 N   0  0  0  0  0  0  0  0  0  0  0  0
   61.5370   83.2920   31.8070 C   0  0  0  0  0  0  0  0  0  0  0  0
   62.7910   82.4270   31.9010 C   0  0  0  0  0  0  0  0  0  0  0  0
   63.0500   81.8800   33.3080 C   0  0  0  0  0  0  0  0  0  0  0  0
   61.9290   81.1320   33.8870 N   0  0  0  0  0  0  0  0  0  0  0  0
   62.4350   80.1540   34.8560 C   0  0  0  0  0  0  0  0  0  0  0  0
   60.9290   82.0060   34.5290 C   0  0  0  0  0  0  0  0  0  0  0  0
   59.8510   82.5480   33.5660 C   0  0  0  0  0  0  0  0  0  0  0  0
   59.9730   81.8620   29.8540 C   0  0  0  0  0  0  0  0  0  0  0  0
   59.4020   80.9850   28.9190 C   0  0  0  0  0  0  0  0  0  0  0  0
   56.3707   81.4119   27.3909 H   0  0  0  0  0  0  0  0  0  0  0  0
   56.9121   80.2716   26.1129 H   0  0  0  0  0  0  0  0  0  0  0  0
   55.2237   80.8848   26.1129 H   0  0  0  0  0  0  0  0  0  0  0  0
   53.5839   79.5188   26.9307 H   0  0  0  0  0  0  0  0  0  0  0  0
   52.8181   77.6082   28.3300 H   0  0  0  0  0  0  0  0  0  0  0  0
   54.4432   76.3947   29.7807 H   0  0  0  0  0  0  0  0  0  0  0  0
   56.8320   77.0910   29.8239 H   0  0  0  0  0  0  0  0  0  0  0  0
   58.2690   79.2400   27.4820 H   0  0  0  0  0  0  0  0  0  0  0  0
   57.6472   79.0107   31.0456 H   0  0  0  0  0  0  0  0  0  0  0  0
   58.6632   80.5592   32.6931 H   0  0  0  0  0  0  0  0  0  0  0  0
   61.4424   83.6487   30.7707 H   0  0  0  0  0  0  0  0  0  0  0  0
   61.6648   84.1087   32.5327 H   0  0  0  0  0  0  0  0  0  0  0  0
   62.6805   81.5770   31.2116 H   0  0  0  0  0  0  0  0  0  0  0  0
   63.6466   83.0669   31.6393 H   0  0  0  0  0  0  0  0  0  0  0  0
   63.9216   81.2106   33.2611 H   0  0  0  0  0  0  0  0  0  0  0  0
   63.2116   82.7529   33.9575 H   0  0  0  0  0  0  0  0  0  0  0  0
   62.2467   80.5180   35.8768 H   0  0  0  0  0  0  0  0  0  0  0  0
   61.9212   79.1925   34.7089 H   0  0  0  0  0  0  0  0  0  0  0  0
   63.5166   80.0180   34.7089 H   0  0  0  0  0  0  0  0  0  0  0  0
   60.4265   81.4315   35.3211 H   0  0  0  0  0  0  0  0  0  0  0  0
   61.4745   82.8791   34.9164 H   0  0  0  0  0  0  0  0  0  0  0  0
   58.9686   81.8940   33.6259 H   0  0  0  0  0  0  0  0  0  0  0  0
   59.6247   83.5786   33.8768 H   0  0  0  0  0  0  0  0  0  0  0  0
   60.6307   82.6682   29.4972 H   0  0  0  0  0  0  0  0  0  0  0  0
   59.6038   81.1290   27.8473 H   0  0  0  0  0  0  0  0  0  0  0  0
  1  2  1  0
  2  3  2  0
  3  4  1  0
  4  5  2  0
  5  6  1  0
  6  7  2  0
  7  8  1  0
  8  9  1  0
  9 10  1  0
 10 11  2  0
 11 12  1  0
 12 13  1  0
 13 14  1  0
 14 15  1  0
 15 16  1  0
 16 17  1  0
 17 18  1  0
 17 19  1  0
 19 20  1  0
 12 21  2  0
 21 22  1  0
  7  2  1  0
 22  9  2  0
 20 13  1  0
  1 23  1  0
  1 24  1  0
  1 25  1  0
  3 26  1  0
  4 27  1  0
  5 28  1  0
  6 29  1  0
  8 30  1  0
 10 31  1  0
 11 32  1  0
 14 33  1  0
 14 34  1  0
 15 35  1  0
 15 36  1  0
 16 37  1  0
 16 38  1  0
 18 39  1  0
 18 40  1  0
 18 41  1  0
 19 42  1  0
 19 43  1  0
 20 44  1  0
 20 45  1  0
 21 46  1  0
 22 47  1  0
M  END
>  <meeko>  (1) 
{"is_sidechain": false}

>  <smiles>  (1) 
Cc1ccccc1Nc1ccc(N2CCCN(C)CC2)cc1

>  <vina_score>  (1) 
-6.412

>  <job_id>  (1) 
3a1b4d9233eaad9d

$$$$
