
     RDKit          3D

 47 50  0  0  0  0  0  0  0  0999 V2000
   61.0640   82.1240   33.0440 O   0  0  0  0  0  0  0  0  0  0  0  0
   61.0330   82.4460   31.8630 C   0  0  0  0  0  0  0  0  0  0  0  0
   60.4060   81.6910   30.8730 N   0  0  0  0  0  0  0  0  0  0  0  0
   59.1960   80.9840   30.9630 C   0  0  0  0  0  0  0  0  0  0  0  0
   58.1840   80.9820   32.2920 S   0  0  0  0  0  0  0  0  0  0  0  0
   59.0110   80.2750   29.7720 N   0  0  0  0  0  0  0  0  0  0  0  0
   57.8420   79.7070   29.2170 C   0  0  0  0  0  0  0  0  0  0  0  0
   57.4010   80.2210   27.9900 C   0  0  0  0  0  0  0  0  0  0  0  0
   56.2350   79.7360   27.3890 C   0  0  0  0  0  0  0  0  0  0  0  0
   55.4940   78.7440   28.0220 C   0  0  0  0  0  0  0  0  0  0  0  0
   54.0570   78.1480   27.2880 Cl  0  0  0  0  0  0  0  0  0  0  0  0
   55.9040   78.2430   29.2530 C   0  0  0  0  0  0  0  0  0  0  0  0
   57.0720   78.7290   29.8530 C   0  0  0  0  0  0  0  0  0  0  0  0
   61.7730   83.6030   31.3680 C   0  0  0  0  0  0  0  0  0  0  0  0
   62.9230   83.6050   30.5950 C   0  0  0  0  0  0  0  0  0  0  0  0
   63.2960   84.9180   30.4090 N   0  0  0  0  0  0  0  0  0  0  0  0
   64.4190   85.4170   29.6880 C   0  0  0  0  0  0  0  0  0  0  0  0
   64.3080   86.6390   29.0050 C   0  0  0  0  0  0  0  0  0  0  0  0
   65.3930   87.1510   28.2900 C   0  0  0  0  0  0  0  0  0  0  0  0
   66.5940   86.4480   28.2500 C   0  0  0  0  0  0  0  0  0  0  0  0
   66.7140   85.2350   28.9240 C   0  0  0  0  0  0  0  0  0  0  0  0
   65.6320   84.7160   29.6430 C   0  0  0  0  0  0  0  0  0  0  0  0
   62.4390   85.7600   31.0190 N   0  0  0  0  0  0  0  0  0  0  0  0
   61.5070   84.9880   31.6000 C   0  0  0  0  0  0  0  0  0  0  0  0
   60.4060   85.6240   32.3300 C   0  0  0  0  0  0  0  0  0  0  0  0
   60.6530   86.2270   33.5750 C   0  0  0  0  0  0  0  0  0  0  0  0
   59.6220   86.8520   34.2830 C   0  0  0  0  0  0  0  0  0  0  0  0
   58.3370   86.8820   33.7480 C   0  0  0  0  0  0  0  0  0  0  0  0
   57.0670   87.6510   34.6160 Cl  0  0  0  0  0  0  0  0  0  0  0  0
   58.0760   86.2980   32.5110 C   0  0  0  0  0  0  0  0  0  0  0  0
   59.1090   85.6750   31.8010 C   0  0  0  0  0  0  0  0  0  0  0  0
   60.5780   81.9940   29.9290 H   0  0  0  0  0  0  0  0  0  0  0  0
   59.8760   79.9190   29.3810 H   0  0  0  0  0  0  0  0  0  0  0  0
   57.9786   81.0150   27.4940 H   0  0  0  0  0  0  0  0  0  0  0  0
   55.9054   80.1376   26.4194 H   0  0  0  0  0  0  0  0  0  0  0  0
   55.3106   77.4648   29.7553 H   0  0  0  0  0  0  0  0  0  0  0  0
   57.3860   78.3383   30.8322 H   0  0  0  0  0  0  0  0  0  0  0  0
   63.4434   82.7194   30.2015 H   0  0  0  0  0  0  0  0  0  0  0  0
   63.3602   87.1966   29.0333 H   0  0  0  0  0  0  0  0  0  0  0  0
   65.2986   88.1095   27.7586 H   0  0  0  0  0  0  0  0  0  0  0  0
   67.4483   86.8506   27.6860 H   0  0  0  0  0  0  0  0  0  0  0  0
   67.6645   84.6823   28.8908 H   0  0  0  0  0  0  0  0  0  0  0  0
   65.7332   83.7575   30.1732 H   0  0  0  0  0  0  0  0  0  0  0  0
   61.6686   86.2071   33.9972 H   0  0  0  0  0  0  0  0  0  0  0  0
   59.8252   87.3180   35.2585 H   0  0  0  0  0  0  0  0  0  0  0  0
   57.0592   86.3262   32.0923 H   0  0  0  0  0  0  0  0  0  0  0  0
   58.9013   85.2220   30.8204 H   0  0  0  0  0  0  0  0  0  0  0  0
  1  2  2  0
  2  3  1  0
  3  4  1  0
  4  5  2  0
  4  6  1  0
  6  7  1  0
  7  8  1  0
  8  9  2  0
  9 10  1  0
 10 11  1  0
 10 12  2  0
 12 13  1  0
  2 14  1  0
 14 15  2  0
 15 16  1  0
 16 17  1  0
 17 18  2  0
 18 19  1  0
 19 20  2  0
 20 21  1  0
 21 22  2  0
 16 23  1  0
 23 24  2  0
 24 25  1  0
 25 26  1  0
 26 27  2  0
 27 28  1  0
 28 29  1  0
 28 30  2  0
 30 31  1  0
 13  7  2  0
 24 14  1  0
 31 25  2  0
 22 17  1  0
  3 32  1  0
  6 33  1  0
  8 34  1  0
  9 35  1  0
 12 36  1  0
 13 37  1  0
 15 38  1  0
 18 39  1  0
 19 40  1  0
 20 41  1  0
 21 42  1  0
 22 43  1  0
 26 44  1  0
 27 45  1  0
 30 46  1  0
 31 47  1  0
M  END
>  <meeko>  (1) 
{"is_sidechain": false}

>  <smiles>  (1) 
O=C(NC(=S)Nc1ccc(Cl)cc1)c1cn(-c2ccccc2)nc1-c1ccc(Cl)cc1

>  <vina_score>  (1) 
-7.186

>  <job_id>  (1) 
3a5474f5f8ea4ce8

$$$$
