
     RDKit          3D

 41 43  0  0  0  0  0  0  0  0999 V2000
   52.9350   78.0050   25.5770 O   0  0  0  0  0  0  0  0  0  0  0  0
   53.5180   78.8400   26.2640 C   0  0  0  0  0  0  0  0  0  0  0  0
   54.3380   78.3570   27.3970 C   0  0  0  0  0  0  0  0  0  0  0  0
   53.9850   77.1960   28.0900 C   0  0  0  0  0  0  0  0  0  0  0  0
   54.7660   76.7760   29.1630 C   0  0  0  0  0  0  0  0  0  0  0  0
   55.8840   77.5210   29.5490 C   0  0  0  0  0  0  0  0  0  0  0  0
   56.2410   78.7050   28.8780 C   0  0  0  0  0  0  0  0  0  0  0  0
   57.4100   79.4950   29.3000 C   0  0  0  0  0  0  0  0  0  0  0  0
   58.1610   80.2320   28.3720 C   0  0  0  0  0  0  0  0  0  0  0  0
   59.2740   80.9820   28.7700 C   0  0  0  0  0  0  0  0  0  0  0  0
   59.6750   81.0080   30.1110 C   0  0  0  0  0  0  0  0  0  0  0  0
   60.8510   81.8530   30.5250 C   0  0  0  0  0  0  0  0  0  0  0  0
   61.2960   81.5150   31.8330 O   0  0  0  0  0  0  0  0  0  0  0  0
   58.9230   80.2870   31.0460 C   0  0  0  0  0  0  0  0  0  0  0  0
   57.8100   79.5390   30.6450 C   0  0  0  0  0  0  0  0  0  0  0  0
   55.4430   79.1160   27.7980 C   0  0  0  0  0  0  0  0  0  0  0  0
   53.4440   80.2070   26.0260 N   0  0  0  0  0  0  0  0  0  0  0  0
   52.6980   80.6720   24.8580 C   0  0  0  0  0  0  0  0  0  0  0  0
   53.1090   82.0970   24.4770 C   0  0  0  0  0  0  0  0  0  0  0  0
   52.9350   83.0560   25.5320 O   0  0  0  0  0  0  0  0  0  0  0  0
   52.9350   82.4840   26.8470 C   0  0  0  0  0  0  0  0  0  0  0  0
   53.8400   81.2530   26.9760 C   0  0  0  0  0  0  0  0  0  0  0  0
   53.0977   76.6190   27.7902 H   0  0  0  0  0  0  0  0  0  0  0  0
   54.5032   75.8571   29.7076 H   0  0  0  0  0  0  0  0  0  0  0  0
   56.4969   77.1747   30.3942 H   0  0  0  0  0  0  0  0  0  0  0  0
   57.8697   80.2203   27.3113 H   0  0  0  0  0  0  0  0  0  0  0  0
   59.8392   81.5567   28.0215 H   0  0  0  0  0  0  0  0  0  0  0  0
   61.6749   81.6932   29.8139 H   0  0  0  0  0  0  0  0  0  0  0  0
   60.5371   82.9073   30.5270 H   0  0  0  0  0  0  0  0  0  0  0  0
   60.6980   81.9620   32.4530 H   0  0  0  0  0  0  0  0  0  0  0  0
   59.2100   80.3085   32.1077 H   0  0  0  0  0  0  0  0  0  0  0  0
   57.2384   78.9755   31.3972 H   0  0  0  0  0  0  0  0  0  0  0  0
   55.6892   80.0443   27.2617 H   0  0  0  0  0  0  0  0  0  0  0  0
   52.9007   80.0003   24.0108 H   0  0  0  0  0  0  0  0  0  0  0  0
   51.6256   80.6699   25.1030 H   0  0  0  0  0  0  0  0  0  0  0  0
   54.1711   82.0861   24.1909 H   0  0  0  0  0  0  0  0  0  0  0  0
   52.4518   82.4084   23.6517 H   0  0  0  0  0  0  0  0  0  0  0  0
   53.2813   83.2474   27.5592 H   0  0  0  0  0  0  0  0  0  0  0  0
   51.9069   82.1545   27.0576 H   0  0  0  0  0  0  0  0  0  0  0  0
   54.8800   81.5483   26.7729 H   0  0  0  0  0  0  0  0  0  0  0  0
   53.7449   80.8536   27.9965 H   0  0  0  0  0  0  0  0  0  0  0  0
  1  2  2  0
  2  3  1  0
  3  4  1  0
  4  5  2  0
  5  6  1  0
  6  7  2  0
  7  8  1  0
  8  9  1  0
  9 10  2  0
 10 11  1  0
 11 12  1  0
 12 13  1  0
 11 14  2  0
 14 15  1  0
  7 16  1  0
  2 17  1  0
 17 18  1  0
 18 19  1  0
 19 20  1  0
 20 21  1  0
 21 22  1  0
 16  3  2  0
 22 17  1  0
 15  8  2  0
  4 23  1  0
  5 24  1  0
  6 25  1  0
  9 26  1  0
 10 27  1  0
 12 28  1  0
 12 29  1  0
 13 30  1  0
 14 31  1  0
 15 32  1  0
 16 33  1  0
 18 34  1  0
 18 35  1  0
 19 36  1  0
 19 37  1  0
 21 38  1  0
 21 39  1  0
 22 40  1  0
 22 41  1  0
M  END
>  <meeko>  (1) 
{"is_sidechain": false}

>  <smiles>  (1) 
O=C(c1cccc(-c2ccc(CO)cc2)c1)N1CCOCC1

>  <vina_score>  (1) 
-8.723

>  <job_id>  (1) 
3a6b5108cffe448f

$$$$
