
     RDKit          3D

 40 42  0  0  0  0  0  0  0  0999 V2000
   60.1110   81.7400   29.9540 C   0  0  0  0  0  0  0  0  0  0  0  0
   59.1100   80.6910   29.6520 C   0  0  0  0  0  0  0  0  0  0  0  0
   58.2430   80.0240   30.5500 C   0  0  0  0  0  0  0  0  0  0  0  0
   57.5370   79.1270   29.7810 C   0  0  0  0  0  0  0  0  0  0  0  0
   56.5630   78.2620   30.1390 N   0  0  0  0  0  0  0  0  0  0  0  0
   55.5530   77.6480   29.3960 C   0  0  0  0  0  0  0  0  0  0  0  0
   55.1760   76.3150   29.5190 C   0  0  0  0  0  0  0  0  0  0  0  0
   54.2060   75.7370   28.7730 N   0  0  0  0  0  0  0  0  0  0  0  0
   53.5850   76.5670   27.8910 C   0  0  0  0  0  0  0  0  0  0  0  0
   52.5640   75.9550   27.0910 C   0  0  0  0  0  0  0  0  0  0  0  0
   51.7240   75.4720   26.4470 N   0  0  0  0  0  0  0  0  0  0  0  0
   53.9020   77.9290   27.7670 C   0  0  0  0  0  0  0  0  0  0  0  0
   53.2570   78.7510   26.8200 N   0  0  0  0  0  0  0  0  0  0  0  0
   54.1030   79.2620   25.7280 C   0  0  1  0  0  0  0  0  0  0  0  0
   53.5010   78.7860   24.4040 C   0  0  0  0  0  0  0  0  0  0  0  0
   54.1210   80.7900   25.7540 C   0  0  0  0  0  0  0  0  0  0  0  0
   55.2740   81.4750   26.1430 C   0  0  0  0  0  0  0  0  0  0  0  0
   55.2590   82.8680   26.1510 C   0  0  0  0  0  0  0  0  0  0  0  0
   54.1010   83.5300   25.7710 C   0  0  0  0  0  0  0  0  0  0  0  0
   54.0580   84.8680   25.7700 F   0  0  0  0  0  0  0  0  0  0  0  0
   52.9960   82.7870   25.3950 C   0  0  0  0  0  0  0  0  0  0  0  0
   52.9770   81.4330   25.3750 N   0  0  0  0  0  0  0  0  0  0  0  0
   54.9020   78.4550   28.5240 N   0  0  0  0  0  0  0  0  0  0  0  0
   57.9590   79.3500   28.4960 N   0  0  0  0  0  0  0  0  0  0  0  0
   58.9350   80.2660   28.3950 N   0  0  0  0  0  0  0  0  0  0  0  0
   60.2128   81.8467   31.0441 H   0  0  0  0  0  0  0  0  0  0  0  0
   61.0816   81.4561   29.5211 H   0  0  0  0  0  0  0  0  0  0  0  0
   59.7820   82.6962   29.5211 H   0  0  0  0  0  0  0  0  0  0  0  0
   58.1525   80.1879   31.6339 H   0  0  0  0  0  0  0  0  0  0  0  0
   56.4020   78.0760   31.1270 H   0  0  0  0  0  0  0  0  0  0  0  0
   55.6956   75.6955   30.2648 H   0  0  0  0  0  0  0  0  0  0  0  0
   52.8580   79.5660   27.2990 H   0  0  0  0  0  0  0  0  0  0  0  0
   55.1331   78.8937   25.8430 H   0  0  0  0  0  0  0  0  0  0  0  0
   52.6529   78.1154   24.6069 H   0  0  0  0  0  0  0  0  0  0  0  0
   53.1516   79.6547   23.8267 H   0  0  0  0  0  0  0  0  0  0  0  0
   54.2657   78.2457   23.8267 H   0  0  0  0  0  0  0  0  0  0  0  0
   56.1790   80.9239   26.4382 H   0  0  0  0  0  0  0  0  0  0  0  0
   56.1520   83.4343   26.4541 H   0  0  0  0  0  0  0  0  0  0  0  0
   52.0841   83.3249   25.0963 H   0  0  0  0  0  0  0  0  0  0  0  0
   57.6030   78.9440   27.6390 H   0  0  0  0  0  0  0  0  0  0  0  0
  1  2  1  0
  2  3  1  0
  3  4  2  0
  4  5  1  0
  5  6  1  0
  6  7  1  0
  7  8  2  0
  8  9  1  0
  9 10  1  0
 10 11  3  0
  9 12  2  0
 12 13  1  0
 13 14  1  0
 14 15  1  0
 14 16  1  0
 16 17  2  0
 17 18  1  0
 18 19  2  0
 19 20  1  0
 19 21  1  0
 21 22  2  0
 12 23  1  0
  4 24  1  0
 24 25  1  0
 25  2  2  0
 23  6  2  0
 22 16  1  0
  1 26  1  0
  1 27  1  0
  1 28  1  0
  3 29  1  0
  5 30  1  0
  7 31  1  0
 13 32  1  0
 14 33  1  1
 15 34  1  0
 15 35  1  0
 15 36  1  0
 17 37  1  0
 18 38  1  0
 21 39  1  0
 24 40  1  0
M  END
>  <meeko>  (1) 
{"is_sidechain": false}

>  <smiles>  (1) 
Cc1cc(Nc2cnc(C#N)c(N[C@@H](C)c3ccc(F)cn3)n2)[nH]n1

>  <vina_score>  (1) 
-8.427

>  <job_id>  (1) 
3b61c67302e31e42

$$$$
