
     RDKit          3D

 43 45  0  0  0  0  0  0  0  0999 V2000
   52.5040   80.7220   24.4800 C   0  0  0  0  0  0  0  0  0  0  0  0
   52.5090   79.8410   25.6350 N   0  0  0  0  0  0  0  0  0  0  0  0
   53.5170   78.5060   25.6790 S   0  0  0  0  0  0  0  0  0  0  0  0
   52.8120   77.4300   26.3420 O   0  0  0  0  0  0  0  0  0  0  0  0
   54.0600   78.3570   24.3480 O   0  0  0  0  0  0  0  0  0  0  0  0
   54.8300   79.0530   26.7440 C   0  0  0  0  0  0  0  0  0  0  0  0
   55.5720   80.1860   26.4110 C   0  0  0  0  0  0  0  0  0  0  0  0
   56.5950   80.6120   27.2630 C   0  0  0  0  0  0  0  0  0  0  0  0
   56.8830   79.9250   28.4560 C   0  0  0  0  0  0  0  0  0  0  0  0
   57.9590   80.3790   29.3500 C   0  0  0  0  0  0  0  0  0  0  0  0
   58.1020   79.8570   30.6400 C   0  0  0  0  0  0  0  0  0  0  0  0
   59.1300   80.2940   31.4910 C   0  0  0  0  0  0  0  0  0  0  0  0
   60.0600   81.2670   31.0980 C   0  0  0  0  0  0  0  0  0  0  0  0
   61.0700   81.6930   31.9390 N   0  0  0  0  0  0  0  0  0  0  0  0
   62.2150   82.4820   31.4520 C   0  0  0  0  0  0  0  0  0  0  0  0
   63.4440   82.2390   32.3460 C   0  0  0  0  0  0  0  0  0  0  0  0
   63.2410   82.5780   33.7250 O   0  0  0  0  0  0  0  0  0  0  0  0
   61.8780   82.4390   34.1480 C   0  0  0  0  0  0  0  0  0  0  0  0
   61.0850   81.3700   33.3750 C   0  0  0  0  0  0  0  0  0  0  0  0
   59.9060   81.7800   29.8020 C   0  0  0  0  0  0  0  0  0  0  0  0
   58.8790   81.3510   28.9460 C   0  0  0  0  0  0  0  0  0  0  0  0
   56.1080   78.7940   28.7740 C   0  0  0  0  0  0  0  0  0  0  0  0
   55.0830   78.3600   27.9280 C   0  0  0  0  0  0  0  0  0  0  0  0
   52.4981   81.7689   24.8174 H   0  0  0  0  0  0  0  0  0  0  0  0
   53.4032   80.5372   23.8740 H   0  0  0  0  0  0  0  0  0  0  0  0
   51.6069   80.5270   23.8740 H   0  0  0  0  0  0  0  0  0  0  0  0
   51.6800   79.7720   26.2210 H   0  0  0  0  0  0  0  0  0  0  0  0
   55.3540   80.7396   25.4858 H   0  0  0  0  0  0  0  0  0  0  0  0
   57.1855   81.5007   26.9956 H   0  0  0  0  0  0  0  0  0  0  0  0
   57.3967   79.0907   30.9940 H   0  0  0  0  0  0  0  0  0  0  0  0
   59.2082   79.8590   32.4983 H   0  0  0  0  0  0  0  0  0  0  0  0
   62.4508   82.1822   30.4202 H   0  0  0  0  0  0  0  0  0  0  0  0
   61.9543   83.5503   31.4814 H   0  0  0  0  0  0  0  0  0  0  0  0
   63.7083   81.1728   32.2876 H   0  0  0  0  0  0  0  0  0  0  0  0
   64.2433   82.8958   31.9721 H   0  0  0  0  0  0  0  0  0  0  0  0
   61.8733   82.1686   35.2142 H   0  0  0  0  0  0  0  0  0  0  0  0
   61.3854   83.4027   33.9513 H   0  0  0  0  0  0  0  0  0  0  0  0
   61.5584   80.3881   33.5224 H   0  0  0  0  0  0  0  0  0  0  0  0
   60.0512   81.3465   33.7501 H   0  0  0  0  0  0  0  0  0  0  0  0
   60.6127   82.5433   29.4444 H   0  0  0  0  0  0  0  0  0  0  0  0
   58.7969   81.7875   27.9396 H   0  0  0  0  0  0  0  0  0  0  0  0
   56.3121   78.2424   29.7035 H   0  0  0  0  0  0  0  0  0  0  0  0
   54.4806   77.4788   28.1939 H   0  0  0  0  0  0  0  0  0  0  0  0
  1  2  1  0
  2  3  1  0
  3  4  2  0
  3  5  2  0
  3  6  1  0
  6  7  1  0
  7  8  2  0
  8  9  1  0
  9 10  1  0
 10 11  1  0
 11 12  2  0
 12 13  1  0
 13 14  1  0
 14 15  1  0
 15 16  1  0
 16 17  1  0
 17 18  1  0
 18 19  1  0
 13 20  2  0
 20 21  1  0
  9 22  2  0
 22 23  1  0
 23  6  2  0
 21 10  2  0
 19 14  1  0
  1 24  1  0
  1 25  1  0
  1 26  1  0
  2 27  1  0
  7 28  1  0
  8 29  1  0
 11 30  1  0
 12 31  1  0
 15 32  1  0
 15 33  1  0
 16 34  1  0
 16 35  1  0
 18 36  1  0
 18 37  1  0
 19 38  1  0
 19 39  1  0
 20 40  1  0
 21 41  1  0
 22 42  1  0
 23 43  1  0
M  END
>  <meeko>  (1) 
{"is_sidechain": false}

>  <smiles>  (1) 
CNS(=O)(=O)c1ccc(-c2ccc(N3CCOCC3)cc2)cc1

>  <vina_score>  (1) 
-7.160

>  <job_id>  (1) 
3bd8b77879b31a4b

$$$$
