
     RDKit          3D

 37 38  0  0  0  0  0  0  0  0999 V2000
   59.0800   83.9470   31.0680 C   0  0  0  0  0  0  0  0  0  0  0  0
   60.3870   83.3790   30.7670 N   0  0  0  0  0  0  0  0  0  0  0  0
   61.5280   84.2410   31.0200 C   0  0  0  0  0  0  0  0  0  0  0  0
   60.6270   82.0240   30.5390 C   0  0  0  0  0  0  0  0  0  0  0  0
   61.7360   81.5050   30.6450 O   0  0  0  0  0  0  0  0  0  0  0  0
   59.5020   81.1530   30.1290 C   0  0  0  0  0  0  0  0  0  0  0  0
   59.0970   81.1540   28.7930 C   0  0  0  0  0  0  0  0  0  0  0  0
   58.0180   80.3600   28.3930 C   0  0  0  0  0  0  0  0  0  0  0  0
   57.3170   79.5690   29.3200 C   0  0  0  0  0  0  0  0  0  0  0  0
   56.1790   78.7370   28.8960 C   0  0  0  0  0  0  0  0  0  0  0  0
   55.8920   77.5210   29.5410 C   0  0  0  0  0  0  0  0  0  0  0  0
   54.8100   76.7300   29.1440 C   0  0  0  0  0  0  0  0  0  0  0  0
   54.0050   77.1490   28.0840 C   0  0  0  0  0  0  0  0  0  0  0  0
   52.6290   76.1490   27.5880 S   0  0  0  0  0  0  0  0  0  0  0  0
   53.1600   74.6100   28.0200 N   0  0  0  0  0  0  0  0  0  0  0  0
   52.5600   76.1440   26.1450 O   0  0  0  0  0  0  0  0  0  0  0  0
   51.4980   76.4800   28.4210 O   0  0  0  0  0  0  0  0  0  0  0  0
   54.2580   78.3580   27.4340 C   0  0  0  0  0  0  0  0  0  0  0  0
   55.3430   79.1420   27.8390 C   0  0  0  0  0  0  0  0  0  0  0  0
   57.7250   79.6040   30.6660 C   0  0  0  0  0  0  0  0  0  0  0  0
   58.8040   80.3940   31.0720 C   0  0  0  0  0  0  0  0  0  0  0  0
   58.9475   84.0046   32.1585 H   0  0  0  0  0  0  0  0  0  0  0  0
   59.0107   84.9564   30.6364 H   0  0  0  0  0  0  0  0  0  0  0  0
   58.2947   83.3090   30.6364 H   0  0  0  0  0  0  0  0  0  0  0  0
   61.6719   84.3497   32.1051 H   0  0  0  0  0  0  0  0  0  0  0  0
   62.4296   83.7965   30.5733 H   0  0  0  0  0  0  0  0  0  0  0  0
   61.3468   85.2297   30.5733 H   0  0  0  0  0  0  0  0  0  0  0  0
   59.6254   81.7778   28.0570 H   0  0  0  0  0  0  0  0  0  0  0  0
   57.7127   80.3541   27.3362 H   0  0  0  0  0  0  0  0  0  0  0  0
   56.5299   77.1864   30.3723 H   0  0  0  0  0  0  0  0  0  0  0  0
   54.5948   75.7844   29.6632 H   0  0  0  0  0  0  0  0  0  0  0  0
   52.4190   74.0160   28.3900 H   0  0  0  0  0  0  0  0  0  0  0  0
   53.9390   74.7020   28.6740 H   0  0  0  0  0  0  0  0  0  0  0  0
   53.6096   78.6913   26.6103 H   0  0  0  0  0  0  0  0  0  0  0  0
   55.5464   80.0916   27.3224 H   0  0  0  0  0  0  0  0  0  0  0  0
   57.1861   78.9999   31.4107 H   0  0  0  0  0  0  0  0  0  0  0  0
   59.1028   80.4182   32.1304 H   0  0  0  0  0  0  0  0  0  0  0  0
  1  2  1  0
  2  3  1  0
  2  4  1  0
  4  5  2  0
  4  6  1  0
  6  7  1  0
  7  8  2  0
  8  9  1  0
  9 10  1  0
 10 11  1  0
 11 12  2  0
 12 13  1  0
 13 14  1  0
 14 15  1  0
 14 16  2  0
 14 17  2  0
 13 18  2  0
 18 19  1  0
  9 20  2  0
 20 21  1  0
 21  6  2  0
 19 10  2  0
  1 22  1  0
  1 23  1  0
  1 24  1  0
  3 25  1  0
  3 26  1  0
  3 27  1  0
  7 28  1  0
  8 29  1  0
 11 30  1  0
 12 31  1  0
 15 32  1  0
 15 33  1  0
 18 34  1  0
 19 35  1  0
 20 36  1  0
 21 37  1  0
M  END
>  <meeko>  (1) 
{"is_sidechain": false}

>  <smiles>  (1) 
CN(C)C(=O)c1ccc(-c2ccc(S(N)(=O)=O)cc2)cc1

>  <vina_score>  (1) 
-7.163

>  <job_id>  (1) 
3bfd9bc6c4776b49

$$$$
