
     RDKit          3D

 66 69  0  0  0  0  0  0  0  0999 V2000
   66.8100   87.4520   30.5350 C   0  0  0  0  0  0  0  0  0  0  0  0
   65.6650   86.5780   30.9850 C   0  0  0  0  0  0  0  0  0  0  0  0
   65.6490   86.3840   32.4850 C   0  0  0  0  0  0  0  0  0  0  0  0
   64.7690   86.0240   30.1330 C   0  0  0  0  0  0  0  0  0  0  0  0
   64.7420   86.2350   28.6400 C   0  0  0  0  0  0  0  0  0  0  0  0
   63.6900   85.1430   30.6140 C   0  0  0  0  0  0  0  0  0  0  0  0
   63.8880   83.7590   30.6760 C   0  0  0  0  0  0  0  0  0  0  0  0
   62.8680   82.9190   31.1310 C   0  0  0  0  0  0  0  0  0  0  0  0
   61.6440   83.4650   31.5370 C   0  0  0  0  0  0  0  0  0  0  0  0
   60.5310   82.6080   32.0160 C   0  0  0  0  0  0  0  0  0  0  0  0
   60.2190   82.6380   33.2040 O   0  0  0  0  0  0  0  0  0  0  0  0
   59.7870   81.7140   31.0920 C   0  0  0  0  0  0  0  0  0  0  0  0
   58.9730   80.7190   31.6350 C   0  0  0  0  0  0  0  0  0  0  0  0
   58.2630   79.8510   30.7950 C   0  0  0  0  0  0  0  0  0  0  0  0
   58.3650   79.9430   29.4030 C   0  0  0  0  0  0  0  0  0  0  0  0
   57.6700   79.1190   28.5120 N   0  0  0  0  0  0  0  0  0  0  0  0
   56.3410   78.7210   28.3960 C   0  0  0  0  0  0  0  0  0  0  0  0
   55.7170   78.0300   29.3620 N   0  0  0  0  0  0  0  0  0  0  0  0
   54.4310   77.6800   29.1460 C   0  0  0  0  0  0  0  0  0  0  0  0
   53.7470   78.0030   28.0070 C   0  0  0  0  0  0  0  0  0  0  0  0
   52.4720   77.6330   27.8360 F   0  0  0  0  0  0  0  0  0  0  0  0
   54.4510   78.7330   27.0760 C   0  0  0  0  0  0  0  0  0  0  0  0
   53.8720   79.1290   25.8000 C   0  0  0  0  0  0  0  0  0  0  0  0
   53.3300   78.3110   24.8240 C   0  0  0  0  0  0  0  0  0  0  0  0
   52.9070   79.0250   23.7440 N   0  0  0  0  0  0  0  0  0  0  0  0
   53.1650   80.2840   24.0250 C   0  0  0  0  0  0  0  0  0  0  0  0
   52.8850   81.4210   23.1080 C   0  0  0  0  0  0  0  0  0  0  0  0
   53.7230   80.4090   25.2910 N   0  0  0  0  0  0  0  0  0  0  0  0
   54.0130   81.6940   25.9280 C   0  0  0  0  0  0  0  0  0  0  0  0
   53.3280   81.9130   27.2790 C   0  0  0  0  0  0  0  0  0  0  0  0
   55.5100   81.9960   25.9800 C   0  0  0  0  0  0  0  0  0  0  0  0
   55.7410   79.0930   27.2510 N   0  0  0  0  0  0  0  0  0  0  0  0
   59.2030   80.9410   28.8760 C   0  0  0  0  0  0  0  0  0  0  0  0
   59.9150   81.8150   29.7060 C   0  0  0  0  0  0  0  0  0  0  0  0
   61.4350   84.8460   31.4550 C   0  0  0  0  0  0  0  0  0  0  0  0
   62.4570   85.6820   31.0010 C   0  0  0  0  0  0  0  0  0  0  0  0
   67.3340   87.8520   31.4156 H   0  0  0  0  0  0  0  0  0  0  0  0
   67.5102   86.8566   29.9307 H   0  0  0  0  0  0  0  0  0  0  0  0
   66.4203   88.2845   29.9307 H   0  0  0  0  0  0  0  0  0  0  0  0
   65.7297   87.3620   32.9821 H   0  0  0  0  0  0  0  0  0  0  0  0
   64.7078   85.8983   32.7819 H   0  0  0  0  0  0  0  0  0  0  0  0
   66.4980   85.7507   32.7819 H   0  0  0  0  0  0  0  0  0  0  0  0
   64.6051   87.3047   28.4233 H   0  0  0  0  0  0  0  0  0  0  0  0
   65.6915   85.8911   28.2039 H   0  0  0  0  0  0  0  0  0  0  0  0
   63.9097   85.6631   28.2039 H   0  0  0  0  0  0  0  0  0  0  0  0
   64.8519   83.3299   30.3649 H   0  0  0  0  0  0  0  0  0  0  0  0
   63.0263   81.8311   31.1701 H   0  0  0  0  0  0  0  0  0  0  0  0
   58.8884   80.6158   32.7269 H   0  0  0  0  0  0  0  0  0  0  0  0
   57.6130   79.0825   31.2387 H   0  0  0  0  0  0  0  0  0  0  0  0
   58.2220   78.6100   27.8360 H   0  0  0  0  0  0  0  0  0  0  0  0
   53.9075   77.1065   29.9251 H   0  0  0  0  0  0  0  0  0  0  0  0
   53.2505   77.2173   24.9100 H   0  0  0  0  0  0  0  0  0  0  0  0
   52.6631   82.3222   23.6984 H   0  0  0  0  0  0  0  0  0  0  0  0
   53.7645   81.6056   22.4737 H   0  0  0  0  0  0  0  0  0  0  0  0
   52.0203   81.1761   22.4737 H   0  0  0  0  0  0  0  0  0  0  0  0
   53.5510   82.4376   25.2619 H   0  0  0  0  0  0  0  0  0  0  0  0
   54.0359   81.6867   28.0900 H   0  0  0  0  0  0  0  0  0  0  0  0
   53.0014   82.9603   27.3590 H   0  0  0  0  0  0  0  0  0  0  0  0
   52.4544   81.2494   27.3590 H   0  0  0  0  0  0  0  0  0  0  0  0
   55.8346   82.0615   27.0290 H   0  0  0  0  0  0  0  0  0  0  0  0
   56.0641   81.1916   25.4742 H   0  0  0  0  0  0  0  0  0  0  0  0
   55.7089   82.9524   25.4742 H   0  0  0  0  0  0  0  0  0  0  0  0
   59.3017   81.0376   27.7847 H   0  0  0  0  0  0  0  0  0  0  0  0
   60.5734   82.5791   29.2670 H   0  0  0  0  0  0  0  0  0  0  0  0
   60.4648   85.2734   31.7484 H   0  0  0  0  0  0  0  0  0  0  0  0
   62.2929   86.7684   30.9471 H   0  0  0  0  0  0  0  0  0  0  0  0
  1  2  1  0
  2  3  1  0
  2  4  2  3
  4  5  1  0
  4  6  1  0
  6  7  1  0
  7  8  2  0
  8  9  1  0
  9 10  1  0
 10 11  2  0
 10 12  1  0
 12 13  1  0
 13 14  2  0
 14 15  1  0
 15 16  1  0
 16 17  1  0
 17 18  2  0
 18 19  1  0
 19 20  2  0
 20 21  1  0
 20 22  1  0
 22 23  1  0
 23 24  2  0
 24 25  1  0
 25 26  2  0
 26 27  1  0
 26 28  1  0
 28 29  1  0
 29 30  1  0
 29 31  1  0
 22 32  2  0
 15 33  2  0
 33 34  1  0
  9 35  2  0
 35 36  1  0
 36  6  2  0
 34 12  2  0
 32 17  1  0
 28 23  1  0
  1 37  1  0
  1 38  1  0
  1 39  1  0
  3 40  1  0
  3 41  1  0
  3 42  1  0
  5 43  1  0
  5 44  1  0
  5 45  1  0
  7 46  1  0
  8 47  1  0
 13 48  1  0
 14 49  1  0
 16 50  1  0
 19 51  1  0
 24 52  1  0
 27 53  1  0
 27 54  1  0
 27 55  1  0
 29 56  1  0
 30 57  1  0
 30 58  1  0
 30 59  1  0
 31 60  1  0
 31 61  1  0
 31 62  1  0
 33 63  1  0
 34 64  1  0
 35 65  1  0
 36 66  1  0
M  END
>  <meeko>  (1) 
{"is_sidechain": false}

>  <smiles>  (1) 
CC(C)=C(C)c1ccc(C(=O)c2ccc(Nc3ncc(F)c(-c4cnc(C)n4C(C)C)n3)cc2)cc1

>  <vina_score>  (1) 
-9.425

>  <job_id>  (1) 
3c48eacbdb8350a6

$$$$
