
     RDKit          3D

 54 57  0  0  0  0  0  0  0  0999 V2000
   61.1420   80.6040   37.3840 C   0  0  0  0  0  0  0  0  0  0  0  0
   62.5320   80.9370   37.0860 N   0  0  0  0  0  0  0  0  0  0  0  0
   63.0550   80.1390   35.9550 C   0  0  0  0  0  0  0  0  0  0  0  0
   62.5140   80.5240   34.5560 C   0  0  0  0  0  0  0  0  0  0  0  0
   62.6740   81.9730   34.3080 N   0  0  0  0  0  0  0  0  0  0  0  0
   62.2630   82.3820   33.0200 C   0  0  0  0  0  0  0  0  0  0  0  0
   61.2700   81.6980   32.4060 N   0  0  0  0  0  0  0  0  0  0  0  0
   60.8680   82.0980   31.1790 C   0  0  0  0  0  0  0  0  0  0  0  0
   59.7900   81.3280   30.5250 C   0  0  0  0  0  0  0  0  0  0  0  0
   58.9050   80.5250   31.2590 C   0  0  0  0  0  0  0  0  0  0  0  0
   57.8840   79.7960   30.6330 C   0  0  0  0  0  0  0  0  0  0  0  0
   57.6980   79.8290   29.2440 C   0  0  0  0  0  0  0  0  0  0  0  0
   56.6540   79.0840   28.6700 N   0  0  0  0  0  0  0  0  0  0  0  0
   56.8220   77.6250   28.8140 C   0  0  0  0  0  0  0  0  0  0  0  0
   55.5820   77.0220   29.4670 C   0  0  0  0  0  0  0  0  0  0  0  0
   54.2810   77.3080   28.7160 C   0  0  0  0  0  0  0  0  0  0  0  0
   53.9640   78.6960   28.3910 N   0  0  0  0  0  0  0  0  0  0  0  0
   54.6260   79.1860   27.1740 C   0  0  0  0  0  0  0  0  0  0  0  0
   56.1180   79.5610   27.3830 C   0  0  0  0  0  0  0  0  0  0  0  0
   58.5720   80.6370   28.5080 C   0  0  0  0  0  0  0  0  0  0  0  0
   59.5960   81.3660   29.1330 C   0  0  0  0  0  0  0  0  0  0  0  0
   61.3840   83.1500   30.5160 N   0  0  0  0  0  0  0  0  0  0  0  0
   62.3550   83.8290   31.1540 C   0  0  0  0  0  0  0  0  0  0  0  0
   62.8280   83.4910   32.3990 C   0  0  0  0  0  0  0  0  0  0  0  0
   63.7780   84.2410   32.9740 F   0  0  0  0  0  0  0  0  0  0  0  0
   62.1310   82.8140   35.3960 C   0  0  0  0  0  0  0  0  0  0  0  0
   62.6940   82.3730   36.7670 C   0  0  0  0  0  0  0  0  0  0  0  0
   60.9988   80.5697   38.4741 H   0  0  0  0  0  0  0  0  0  0  0  0
   60.4808   81.3691   36.9512 H   0  0  0  0  0  0  0  0  0  0  0  0
   60.8992   79.6223   36.9512 H   0  0  0  0  0  0  0  0  0  0  0  0
   64.1489   80.2533   35.9378 H   0  0  0  0  0  0  0  0  0  0  0  0
   62.7176   79.1074   36.1340 H   0  0  0  0  0  0  0  0  0  0  0  0
   63.0689   79.9640   33.7888 H   0  0  0  0  0  0  0  0  0  0  0  0
   61.4430   80.2766   34.5134 H   0  0  0  0  0  0  0  0  0  0  0  0
   59.0145   80.4657   32.3519 H   0  0  0  0  0  0  0  0  0  0  0  0
   57.2106   79.1815   31.2486 H   0  0  0  0  0  0  0  0  0  0  0  0
   56.9669   77.1747   27.8209 H   0  0  0  0  0  0  0  0  0  0  0  0
   57.6993   77.4219   29.4457 H   0  0  0  0  0  0  0  0  0  0  0  0
   55.7163   75.9317   29.5230 H   0  0  0  0  0  0  0  0  0  0  0  0
   55.4860   77.4889   30.4583 H   0  0  0  0  0  0  0  0  0  0  0  0
   54.3225   76.7520   27.7677 H   0  0  0  0  0  0  0  0  0  0  0  0
   53.4890   77.0037   29.4161 H   0  0  0  0  0  0  0  0  0  0  0  0
   52.9550   78.7980   28.2840 H   0  0  0  0  0  0  0  0  0  0  0  0
   54.5698   78.3992   26.4073 H   0  0  0  0  0  0  0  0  0  0  0  0
   54.1029   80.1051   26.8713 H   0  0  0  0  0  0  0  0  0  0  0  0
   56.7093   79.1152   26.5696 H   0  0  0  0  0  0  0  0  0  0  0  0
   56.1856   80.6589   27.3837 H   0  0  0  0  0  0  0  0  0  0  0  0
   58.4541   80.7023   27.4163 H   0  0  0  0  0  0  0  0  0  0  0  0
   60.2652   81.9841   28.5165 H   0  0  0  0  0  0  0  0  0  0  0  0
   62.7944   84.7030   30.6510 H   0  0  0  0  0  0  0  0  0  0  0  0
   62.4082   83.8627   35.2132 H   0  0  0  0  0  0  0  0  0  0  0  0
   61.0367   82.7035   35.4132 H   0  0  0  0  0  0  0  0  0  0  0  0
   63.7691   82.6054   36.7833 H   0  0  0  0  0  0  0  0  0  0  0  0
   62.1128   82.9198   37.5241 H   0  0  0  0  0  0  0  0  0  0  0  0
  1  2  1  0
  2  3  1  0
  3  4  1  0
  4  5  1  0
  5  6  1  0
  6  7  2  0
  7  8  1  0
  8  9  1  0
  9 10  1  0
 10 11  2  0
 11 12  1  0
 12 13  1  0
 13 14  1  0
 14 15  1  0
 15 16  1  0
 16 17  1  0
 17 18  1  0
 18 19  1  0
 12 20  2  0
 20 21  1  0
  8 22  2  0
 22 23  1  0
 23 24  2  0
 24 25  1  0
  5 26  1  0
 26 27  1  0
 27  2  1  0
 24  6  1  0
 21  9  2  0
 19 13  1  0
  1 28  1  0
  1 29  1  0
  1 30  1  0
  3 31  1  0
  3 32  1  0
  4 33  1  0
  4 34  1  0
 10 35  1  0
 11 36  1  0
 14 37  1  0
 14 38  1  0
 15 39  1  0
 15 40  1  0
 16 41  1  0
 16 42  1  0
 17 43  1  0
 18 44  1  0
 18 45  1  0
 19 46  1  0
 19 47  1  0
 20 48  1  0
 21 49  1  0
 23 50  1  0
 26 51  1  0
 26 52  1  0
 27 53  1  0
 27 54  1  0
M  END
>  <meeko>  (1) 
{"is_sidechain": false}

>  <smiles>  (1) 
CN1CCN(c2nc(-c3ccc(N4CCCNCC4)cc3)ncc2F)CC1

>  <vina_score>  (1) 
-5.534

>  <job_id>  (1) 
3cbcb531d049de40

$$$$
