
     RDKit          3D

 55 57  0  0  0  0  0  0  0  0999 V2000
   62.5630   80.4200   36.5050 C   0  0  0  0  0  0  0  0  0  0  0  0
   62.6840   81.3660   35.4050 N   0  0  0  0  0  0  0  0  0  0  0  0
   62.0990   81.0750   34.2960 C   0  0  0  0  0  0  0  0  0  0  0  0
   61.2560   79.8590   34.0210 C   0  0  0  0  0  0  0  0  0  0  0  0
   62.2950   82.2250   32.9870 S   0  0  0  0  0  0  0  0  0  0  0  0
   60.7190   82.9290   33.0730 C   0  0  0  0  0  0  0  0  0  0  0  0
   60.1060   83.2480   34.0710 O   0  0  0  0  0  0  0  0  0  0  0  0
   60.2580   83.1500   31.6520 C   0  0  0  0  0  0  0  0  0  0  0  0
   60.4410   84.2520   31.1440 O   0  0  0  0  0  0  0  0  0  0  0  0
   59.6550   82.0260   30.8910 C   0  0  0  0  0  0  0  0  0  0  0  0
   58.8930   81.0830   31.5850 C   0  0  0  0  0  0  0  0  0  0  0  0
   58.3110   80.0090   30.9010 C   0  0  0  0  0  0  0  0  0  0  0  0
   58.4720   79.8480   29.5150 C   0  0  0  0  0  0  0  0  0  0  0  0
   57.8540   78.7600   28.8940 N   0  0  0  0  0  0  0  0  0  0  0  0
   56.5340   78.3480   28.7480 C   0  0  0  0  0  0  0  0  0  0  0  0
   55.9340   77.5460   29.6430 N   0  0  0  0  0  0  0  0  0  0  0  0
   54.6440   77.2160   29.4160 C   0  0  0  0  0  0  0  0  0  0  0  0
   53.9390   77.6470   28.3260 C   0  0  0  0  0  0  0  0  0  0  0  0
   52.6610   77.2930   28.1450 F   0  0  0  0  0  0  0  0  0  0  0  0
   54.6320   78.4470   27.4460 C   0  0  0  0  0  0  0  0  0  0  0  0
   54.0130   79.0130   26.2570 C   0  0  0  0  0  0  0  0  0  0  0  0
   53.4480   78.3350   25.1910 C   0  0  0  0  0  0  0  0  0  0  0  0
   52.9340   79.1890   24.2620 N   0  0  0  0  0  0  0  0  0  0  0  0
   53.1720   80.3980   24.7220 C   0  0  0  0  0  0  0  0  0  0  0  0
   52.7590   81.6510   24.0340 C   0  0  0  0  0  0  0  0  0  0  0  0
   53.8670   80.3490   25.9230 N   0  0  0  0  0  0  0  0  0  0  0  0
   54.3730   81.5360   26.6180 C   0  0  0  0  0  0  0  0  0  0  0  0
   53.3050   82.5680   26.9880 C   0  0  0  0  0  0  0  0  0  0  0  0
   55.5680   82.1640   25.9050 C   0  0  0  0  0  0  0  0  0  0  0  0
   55.9190   78.8090   27.6450 N   0  0  0  0  0  0  0  0  0  0  0  0
   59.2270   80.8110   28.8370 C   0  0  0  0  0  0  0  0  0  0  0  0
   59.8170   81.8900   29.5110 C   0  0  0  0  0  0  0  0  0  0  0  0
   62.6319   80.9590   37.4614 H   0  0  0  0  0  0  0  0  0  0  0  0
   61.5919   79.9071   36.4424 H   0  0  0  0  0  0  0  0  0  0  0  0
   63.3737   79.6792   36.4424 H   0  0  0  0  0  0  0  0  0  0  0  0
   60.9426   79.4070   34.9736 H   0  0  0  0  0  0  0  0  0  0  0  0
   60.3665   80.1523   33.4442 H   0  0  0  0  0  0  0  0  0  0  0  0
   61.8427   79.1289   33.4442 H   0  0  0  0  0  0  0  0  0  0  0  0
   58.7500   81.1845   32.6709 H   0  0  0  0  0  0  0  0  0  0  0  0
   57.7141   79.2746   31.4617 H   0  0  0  0  0  0  0  0  0  0  0  0
   58.4480   78.1410   28.3610 H   0  0  0  0  0  0  0  0  0  0  0  0
   54.1347   76.5680   30.1445 H   0  0  0  0  0  0  0  0  0  0  0  0
   53.4176   77.2389   25.1042 H   0  0  0  0  0  0  0  0  0  0  0  0
   52.5071   82.4152   24.7840 H   0  0  0  0  0  0  0  0  0  0  0  0
   53.5853   82.0132   23.4047 H   0  0  0  0  0  0  0  0  0  0  0  0
   51.8793   81.4509   23.4047 H   0  0  0  0  0  0  0  0  0  0  0  0
   54.7329   81.1548   27.5851 H   0  0  0  0  0  0  0  0  0  0  0  0
   53.2294   82.6410   28.0830 H   0  0  0  0  0  0  0  0  0  0  0  0
   53.5831   83.5482   26.5735 H   0  0  0  0  0  0  0  0  0  0  0  0
   52.3349   82.2565   26.5735 H   0  0  0  0  0  0  0  0  0  0  0  0
   56.2837   82.5401   26.6508 H   0  0  0  0  0  0  0  0  0  0  0  0
   56.0584   81.4071   25.2752 H   0  0  0  0  0  0  0  0  0  0  0  0
   55.2228   82.9972   25.2752 H   0  0  0  0  0  0  0  0  0  0  0  0
   59.3611   80.7196   27.7490 H   0  0  0  0  0  0  0  0  0  0  0  0
   60.4081   82.6301   28.9517 H   0  0  0  0  0  0  0  0  0  0  0  0
  1  2  1  0
  2  3  2  3
  3  4  1  0
  3  5  1  0
  5  6  1  0
  6  7  2  0
  6  8  1  0
  8  9  2  0
  8 10  1  0
 10 11  1  0
 11 12  2  0
 12 13  1  0
 13 14  1  0
 14 15  1  0
 15 16  2  0
 16 17  1  0
 17 18  2  0
 18 19  1  0
 18 20  1  0
 20 21  1  0
 21 22  2  0
 22 23  1  0
 23 24  2  0
 24 25  1  0
 24 26  1  0
 26 27  1  0
 27 28  1  0
 27 29  1  0
 20 30  2  0
 13 31  2  0
 31 32  1  0
 32 10  2  0
 30 15  1  0
 26 21  1  0
  1 33  1  0
  1 34  1  0
  1 35  1  0
  4 36  1  0
  4 37  1  0
  4 38  1  0
 11 39  1  0
 12 40  1  0
 14 41  1  0
 17 42  1  0
 22 43  1  0
 25 44  1  0
 25 45  1  0
 25 46  1  0
 27 47  1  0
 28 48  1  0
 28 49  1  0
 28 50  1  0
 29 51  1  0
 29 52  1  0
 29 53  1  0
 31 54  1  0
 32 55  1  0
M  END
>  <meeko>  (1) 
{"is_sidechain": false}

>  <smiles>  (1) 
CN=C(C)SC(=O)C(=O)c1ccc(Nc2ncc(F)c(-c3cnc(C)n3C(C)C)n2)cc1

>  <vina_score>  (1) 
-8.769

>  <job_id>  (1) 
3d33fe8e869ce5d9

$$$$
