
     RDKit          3D

 45 47  0  0  0  0  0  0  0  0999 V2000
   53.9780   77.2690   28.3950 C   0  0  0  0  0  0  0  0  0  0  0  0
   54.8970   78.3850   27.9760 C   0  0  0  0  0  0  0  0  0  0  0  0
   56.0010   78.7050   28.7950 C   0  0  0  0  0  0  0  0  0  0  0  0
   56.9060   79.7260   28.4720 C   0  0  0  0  0  0  0  0  0  0  0  0
   58.0180   80.0650   29.2640 N   0  0  0  0  0  0  0  0  0  0  0  0
   57.9100   79.8510   30.7290 C   0  0  0  0  0  0  0  0  0  0  0  0
   59.2890   80.0440   31.3910 C   0  0  0  0  0  0  0  0  0  0  0  0
   59.8430   81.3640   31.0720 N   0  0  0  0  0  0  0  0  0  0  0  0
   59.5210   82.4080   31.9400 C   0  0  0  0  0  0  0  0  0  0  0  0
   58.7780   82.2740   32.9090 O   0  0  0  0  0  0  0  0  0  0  0  0
   60.1130   83.7400   31.7050 C   0  0  0  0  0  0  0  0  0  0  0  0
   59.2940   84.8630   31.5910 C   0  0  0  0  0  0  0  0  0  0  0  0
   59.8790   86.1110   31.3950 C   0  0  0  0  0  0  0  0  0  0  0  0
   61.2630   86.1880   31.3330 C   0  0  0  0  0  0  0  0  0  0  0  0
   62.0830   85.1210   31.4600 N   0  0  0  0  0  0  0  0  0  0  0  0
   61.4890   83.9200   31.6620 C   0  0  0  0  0  0  0  0  0  0  0  0
   59.9710   81.5760   29.6200 C   0  0  0  0  0  0  0  0  0  0  0  0
   58.6120   81.3810   28.9070 C   0  0  0  0  0  0  0  0  0  0  0  0
   56.6850   80.4110   27.2700 C   0  0  0  0  0  0  0  0  0  0  0  0
   55.6000   80.1100   26.4410 C   0  0  0  0  0  0  0  0  0  0  0  0
   54.6870   79.1030   26.7840 C   0  0  0  0  0  0  0  0  0  0  0  0
   53.5410   78.8080   25.8460 C   0  0  0  0  0  0  0  0  0  0  0  0
   52.5290   79.8570   25.8920 N   0  0  0  0  0  0  0  0  0  0  0  0
   53.9377   77.2200   29.4932 H   0  0  0  0  0  0  0  0  0  0  0  0
   52.9690   77.4566   27.9990 H   0  0  0  0  0  0  0  0  0  0  0  0
   54.3557   76.3148   27.9990 H   0  0  0  0  0  0  0  0  0  0  0  0
   56.1572   78.1322   29.7210 H   0  0  0  0  0  0  0  0  0  0  0  0
   57.1980   80.5751   31.1518 H   0  0  0  0  0  0  0  0  0  0  0  0
   57.5568   78.8269   30.9202 H   0  0  0  0  0  0  0  0  0  0  0  0
   59.1806   79.9530   32.4819 H   0  0  0  0  0  0  0  0  0  0  0  0
   59.9738   79.2735   31.0071 H   0  0  0  0  0  0  0  0  0  0  0  0
   58.2003   84.7640   31.6551 H   0  0  0  0  0  0  0  0  0  0  0  0
   59.2592   87.0139   31.2918 H   0  0  0  0  0  0  0  0  0  0  0  0
   61.7198   87.1755   31.1710 H   0  0  0  0  0  0  0  0  0  0  0  0
   62.1327   83.0387   31.7996 H   0  0  0  0  0  0  0  0  0  0  0  0
   60.3294   82.5997   29.4366 H   0  0  0  0  0  0  0  0  0  0  0  0
   60.6839   80.8396   29.2208 H   0  0  0  0  0  0  0  0  0  0  0  0
   57.9245   82.1831   29.2135 H   0  0  0  0  0  0  0  0  0  0  0  0
   58.7740   81.4138   27.8195 H   0  0  0  0  0  0  0  0  0  0  0  0
   57.3833   81.2064   26.9706 H   0  0  0  0  0  0  0  0  0  0  0  0
   55.4607   80.6718   25.5056 H   0  0  0  0  0  0  0  0  0  0  0  0
   53.9297   78.7311   24.8199 H   0  0  0  0  0  0  0  0  0  0  0  0
   53.0731   77.8631   26.1593 H   0  0  0  0  0  0  0  0  0  0  0  0
   52.9890   80.7480   26.0670 H   0  0  0  0  0  0  0  0  0  0  0  0
   51.9080   79.6890   26.6790 H   0  0  0  0  0  0  0  0  0  0  0  0
  1  2  1  0
  2  3  1  0
  3  4  2  0
  4  5  1  0
  5  6  1  0
  6  7  1  0
  7  8  1  0
  8  9  1  0
  9 10  2  0
  9 11  1  0
 11 12  1  0
 12 13  2  0
 13 14  1  0
 14 15  2  0
 15 16  1  0
  8 17  1  0
 17 18  1  0
  4 19  1  0
 19 20  2  0
 20 21  1  0
 21 22  1  0
 22 23  1  0
 21  2  2  0
 18  5  1  0
 16 11  2  0
  1 24  1  0
  1 25  1  0
  1 26  1  0
  3 27  1  0
  6 28  1  0
  6 29  1  0
  7 30  1  0
  7 31  1  0
 12 32  1  0
 13 33  1  0
 14 34  1  0
 16 35  1  0
 17 36  1  0
 17 37  1  0
 18 38  1  0
 18 39  1  0
 19 40  1  0
 20 41  1  0
 22 42  1  0
 22 43  1  0
 23 44  1  0
 23 45  1  0
M  END
>  <meeko>  (1) 
{"is_sidechain": false}

>  <smiles>  (1) 
Cc1cc(N2CCN(C(=O)c3cccnc3)CC2)ccc1CN

>  <vina_score>  (1) 
-6.770

>  <job_id>  (1) 
3da19aaba9e3971e

$$$$
