
     RDKit          3D

 45 47  0  0  0  0  0  0  0  0999 V2000
   55.6790   82.5440   26.1630 C   0  0  0  0  0  0  0  0  0  0  0  0
   55.4110   81.0910   25.7720 C   0  0  0  0  0  0  0  0  0  0  0  0
   53.9660   80.9020   25.3090 C   0  0  0  0  0  0  0  0  0  0  0  0
   55.7360   80.1550   26.9170 C   0  0  0  0  0  0  0  0  0  0  0  0
   56.8500   80.4280   27.6420 N   0  0  0  0  0  0  0  0  0  0  0  0
   57.2100   79.6220   28.6690 C   0  0  0  0  0  0  0  0  0  0  0  0
   58.3510   79.8720   29.4310 N   0  0  0  0  0  0  0  0  0  0  0  0
   59.3130   80.8060   28.8080 C   0  0  0  0  0  0  0  0  0  0  0  0
   59.6760   81.9910   29.7380 C   0  0  0  0  0  0  0  0  0  0  0  0
   60.1830   81.5590   31.0540 N   0  0  0  0  0  0  0  0  0  0  0  0
   60.4320   82.6360   32.0270 C   0  0  0  0  0  0  0  0  0  0  0  0
   60.1880   84.0140   31.4010 C   0  0  0  0  0  0  0  0  0  0  0  0
   59.6480   82.5110   33.3390 C   0  0  0  0  0  0  0  0  0  0  0  0
   59.3910   80.4360   31.6080 C   0  0  0  0  0  0  0  0  0  0  0  0
   58.0760   80.1280   30.8550 C   0  0  0  0  0  0  0  0  0  0  0  0
   56.3460   78.5740   28.9320 C   0  0  0  0  0  0  0  0  0  0  0  0
   56.2890   77.6050   29.8950 N   0  0  0  0  0  0  0  0  0  0  0  0
   55.1850   76.8380   29.6460 C   0  0  0  0  0  0  0  0  0  0  0  0
   54.5250   77.2650   28.5930 N   0  0  0  0  0  0  0  0  0  0  0  0
   55.2280   78.3570   28.1540 C   0  0  0  0  0  0  0  0  0  0  0  0
   54.8910   79.1300   27.1100 N   0  0  0  0  0  0  0  0  0  0  0  0
   55.6952   82.6317   27.2594 H   0  0  0  0  0  0  0  0  0  0  0  0
   56.6506   82.8601   25.7555 H   0  0  0  0  0  0  0  0  0  0  0  0
   54.8841   83.1860   25.7555 H   0  0  0  0  0  0  0  0  0  0  0  0
   56.0714   80.8424   24.9281 H   0  0  0  0  0  0  0  0  0  0  0  0
   53.3081   80.8160   26.1864 H   0  0  0  0  0  0  0  0  0  0  0  0
   53.6587   81.7676   24.7038 H   0  0  0  0  0  0  0  0  0  0  0  0
   53.8917   79.9865   24.7038 H   0  0  0  0  0  0  0  0  0  0  0  0
   60.2329   80.2543   28.5640 H   0  0  0  0  0  0  0  0  0  0  0  0
   58.8396   81.2215   27.9062 H   0  0  0  0  0  0  0  0  0  0  0  0
   60.4508   82.5975   29.2462 H   0  0  0  0  0  0  0  0  0  0  0  0
   58.7540   82.5646   29.9137 H   0  0  0  0  0  0  0  0  0  0  0  0
   61.4929   82.5273   32.2968 H   0  0  0  0  0  0  0  0  0  0  0  0
   60.0558   84.7606   32.1980 H   0  0  0  0  0  0  0  0  0  0  0  0
   61.0509   84.2917   30.7779 H   0  0  0  0  0  0  0  0  0  0  0  0
   59.2822   83.9785   30.7779 H   0  0  0  0  0  0  0  0  0  0  0  0
   60.3368   82.6208   34.1896 H   0  0  0  0  0  0  0  0  0  0  0  0
   58.8810   83.2982   33.3843 H   0  0  0  0  0  0  0  0  0  0  0  0
   59.1638   81.5243   33.3843 H   0  0  0  0  0  0  0  0  0  0  0  0
   60.0176   79.5322   31.5837 H   0  0  0  0  0  0  0  0  0  0  0  0
   59.0989   80.7386   32.6244 H   0  0  0  0  0  0  0  0  0  0  0  0
   57.6031   79.2395   31.2988 H   0  0  0  0  0  0  0  0  0  0  0  0
   57.4035   80.9944   30.9397 H   0  0  0  0  0  0  0  0  0  0  0  0
   56.9360   77.5020   30.6620 H   0  0  0  0  0  0  0  0  0  0  0  0
   54.8860   75.9703   30.2524 H   0  0  0  0  0  0  0  0  0  0  0  0
  1  2  1  0
  2  3  1  0
  2  4  1  0
  4  5  2  0
  5  6  1  0
  6  7  1  0
  7  8  1  0
  8  9  1  0
  9 10  1  0
 10 11  1  0
 11 12  1  0
 11 13  1  0
 10 14  1  0
 14 15  1  0
  6 16  2  0
 16 17  1  0
 17 18  1  0
 18 19  2  0
 19 20  1  0
 20 21  2  0
 21  4  1  0
 15  7  1  0
 20 16  1  0
  1 22  1  0
  1 23  1  0
  1 24  1  0
  2 25  1  0
  3 26  1  0
  3 27  1  0
  3 28  1  0
  8 29  1  0
  8 30  1  0
  9 31  1  0
  9 32  1  0
 11 33  1  0
 12 34  1  0
 12 35  1  0
 12 36  1  0
 13 37  1  0
 13 38  1  0
 13 39  1  0
 14 40  1  0
 14 41  1  0
 15 42  1  0
 15 43  1  0
 17 44  1  0
 18 45  1  0
M  END
>  <meeko>  (1) 
{"is_sidechain": false}

>  <smiles>  (1) 
CC(C)c1nc(N2CCN(C(C)C)CC2)c2[nH]cnc2n1

>  <vina_score>  (1) 
-7.058

>  <job_id>  (1) 
3dd3bc48581c8c20

$$$$
