
     RDKit          3D

 39 40  0  0  0  0  0  0  0  0999 V2000
   53.3200   75.5330   28.0200 C   0  0  0  0  0  0  0  0  0  0  0  0
   53.1300   76.9480   28.5480 C   0  0  0  0  0  0  0  0  0  0  0  0
   54.4390   77.5970   29.0420 C   0  0  0  0  0  0  0  0  0  0  0  0
   55.5360   76.5670   29.3320 C   0  0  0  0  0  0  0  0  0  0  0  0
   54.9290   78.6420   28.0500 C   0  0  0  0  0  0  0  0  0  0  0  0
   56.2030   79.2050   28.2030 C   0  0  0  0  0  0  0  0  0  0  0  0
   56.6670   80.1630   27.3020 C   0  0  0  0  0  0  0  0  0  0  0  0
   55.8640   80.5700   26.2360 C   0  0  0  0  0  0  0  0  0  0  0  0
   54.5830   80.0300   26.0520 C   0  0  0  0  0  0  0  0  0  0  0  0
   53.7330   80.4610   24.9290 C   0  0  0  0  0  0  0  0  0  0  0  0
   53.2600   79.5330   23.9850 C   0  0  0  0  0  0  0  0  0  0  0  0
   52.4510   79.9370   22.9180 C   0  0  0  0  0  0  0  0  0  0  0  0
   52.1150   81.2850   22.7820 C   0  0  0  0  0  0  0  0  0  0  0  0
   51.0670   81.7980   21.4540 S   0  0  0  0  0  0  0  0  0  0  0  0
   49.5500   81.3570   22.0190 N   0  0  0  0  0  0  0  0  0  0  0  0
   51.0590   83.2410   21.3830 O   0  0  0  0  0  0  0  0  0  0  0  0
   51.3170   80.9670   20.2990 O   0  0  0  0  0  0  0  0  0  0  0  0
   52.5620   82.2240   23.7120 C   0  0  0  0  0  0  0  0  0  0  0  0
   53.3690   81.8110   24.7760 C   0  0  0  0  0  0  0  0  0  0  0  0
   54.1330   79.0660   26.9710 C   0  0  0  0  0  0  0  0  0  0  0  0
   53.4136   74.8356   28.8655 H   0  0  0  0  0  0  0  0  0  0  0  0
   52.4517   75.2509   27.4065 H   0  0  0  0  0  0  0  0  0  0  0  0
   54.2320   75.4899   27.4065 H   0  0  0  0  0  0  0  0  0  0  0  0
   52.7158   77.5692   27.7402 H   0  0  0  0  0  0  0  0  0  0  0  0
   52.4522   76.8845   29.4120 H   0  0  0  0  0  0  0  0  0  0  0  0
   54.2084   78.0924   29.9967 H   0  0  0  0  0  0  0  0  0  0  0  0
   55.6554   76.4549   30.4197 H   0  0  0  0  0  0  0  0  0  0  0  0
   55.2552   75.5986   28.8922 H   0  0  0  0  0  0  0  0  0  0  0  0
   56.4848   76.9082   28.8922 H   0  0  0  0  0  0  0  0  0  0  0  0
   56.8422   78.8888   29.0405 H   0  0  0  0  0  0  0  0  0  0  0  0
   57.6686   80.5989   27.4321 H   0  0  0  0  0  0  0  0  0  0  0  0
   56.2410   81.3248   25.5302 H   0  0  0  0  0  0  0  0  0  0  0  0
   53.5306   78.4717   24.0872 H   0  0  0  0  0  0  0  0  0  0  0  0
   52.0823   79.1980   22.1914 H   0  0  0  0  0  0  0  0  0  0  0  0
   49.4110   80.3540   21.8910 H   0  0  0  0  0  0  0  0  0  0  0  0
   49.4360   81.6680   22.9840 H   0  0  0  0  0  0  0  0  0  0  0  0
   52.2812   83.2825   23.6086 H   0  0  0  0  0  0  0  0  0  0  0  0
   53.7251   82.5536   25.5052 H   0  0  0  0  0  0  0  0  0  0  0  0
   53.1307   78.6314   26.8425 H   0  0  0  0  0  0  0  0  0  0  0  0
  1  2  1  0
  2  3  1  0
  3  4  1  0
  3  5  1  0
  5  6  2  0
  6  7  1  0
  7  8  2  0
  8  9  1  0
  9 10  1  0
 10 11  1  0
 11 12  2  0
 12 13  1  0
 13 14  1  0
 14 15  1  0
 14 16  2  0
 14 17  2  0
 13 18  2  0
 18 19  1  0
  9 20  2  0
 20  5  1  0
 19 10  2  0
  1 21  1  0
  1 22  1  0
  1 23  1  0
  2 24  1  0
  2 25  1  0
  3 26  1  0
  4 27  1  0
  4 28  1  0
  4 29  1  0
  6 30  1  0
  7 31  1  0
  8 32  1  0
 11 33  1  0
 12 34  1  0
 15 35  1  0
 15 36  1  0
 18 37  1  0
 19 38  1  0
 20 39  1  0
M  END
>  <meeko>  (1) 
{"is_sidechain": false}

>  <smiles>  (1) 
CCC(C)c1cccc(-c2ccc(S(N)(=O)=O)cc2)c1

>  <vina_score>  (1) 
-8.571

>  <job_id>  (1) 
3e01843309e44714

$$$$
