
     RDKit          3D

 38 39  0  0  0  0  0  0  0  0999 V2000
   59.3680   81.1700   28.9770 C   0  0  0  0  0  0  0  0  0  0  0  0
   58.7740   79.8570   29.4910 C   0  0  0  0  0  0  0  0  0  0  0  0
   58.6440   79.8670   31.0150 C   0  0  0  0  0  0  0  0  0  0  0  0
   57.4540   79.5380   28.8190 C   0  0  0  0  0  0  0  0  0  0  0  0
   57.0540   80.1730   27.6450 C   0  0  0  0  0  0  0  0  0  0  0  0
   55.8270   79.8390   27.0760 C   0  0  0  0  0  0  0  0  0  0  0  0
   55.0150   78.8820   27.6870 C   0  0  0  0  0  0  0  0  0  0  0  0
   53.6830   78.4850   27.1120 C   0  0  0  0  0  0  0  0  0  0  0  0
   53.2520   79.3150   25.9200 C   0  0  0  0  0  0  0  0  0  0  0  0
   53.3490   78.7940   24.6200 C   0  0  0  0  0  0  0  0  0  0  0  0
   52.9590   79.5600   23.5200 C   0  0  0  0  0  0  0  0  0  0  0  0
   52.4600   80.8500   23.7200 C   0  0  0  0  0  0  0  0  0  0  0  0
   51.9770   81.8200   22.3190 S   0  0  0  0  0  0  0  0  0  0  0  0
   50.3670   81.3570   22.1320 N   0  0  0  0  0  0  0  0  0  0  0  0
   51.9370   83.2100   22.7100 O   0  0  0  0  0  0  0  0  0  0  0  0
   52.7090   81.3570   21.1650 O   0  0  0  0  0  0  0  0  0  0  0  0
   52.3650   81.3870   25.0050 C   0  0  0  0  0  0  0  0  0  0  0  0
   52.7550   80.6160   26.1030 C   0  0  0  0  0  0  0  0  0  0  0  0
   55.4970   78.2970   28.8520 C   0  0  0  0  0  0  0  0  0  0  0  0
   56.6840   78.6010   29.4240 N   0  0  0  0  0  0  0  0  0  0  0  0
   59.6540   81.8021   29.8306 H   0  0  0  0  0  0  0  0  0  0  0  0
   60.2568   80.9557   28.3654 H   0  0  0  0  0  0  0  0  0  0  0  0
   58.6202   81.6961   28.3654 H   0  0  0  0  0  0  0  0  0  0  0  0
   59.4736   79.0513   29.2238 H   0  0  0  0  0  0  0  0  0  0  0  0
   59.6431   79.7902   31.4687 H   0  0  0  0  0  0  0  0  0  0  0  0
   58.1665   80.8045   31.3361 H   0  0  0  0  0  0  0  0  0  0  0  0
   58.0289   79.0135   31.3361 H   0  0  0  0  0  0  0  0  0  0  0  0
   57.6992   80.9288   27.1732 H   0  0  0  0  0  0  0  0  0  0  0  0
   55.4987   80.3284   26.1472 H   0  0  0  0  0  0  0  0  0  0  0  0
   53.7425   77.4328   26.7970 H   0  0  0  0  0  0  0  0  0  0  0  0
   52.9347   78.6504   27.9011 H   0  0  0  0  0  0  0  0  0  0  0  0
   53.7349   77.7753   24.4671 H   0  0  0  0  0  0  0  0  0  0  0  0
   53.0439   79.1509   22.5024 H   0  0  0  0  0  0  0  0  0  0  0  0
   49.7260   82.1470   22.0820 H   0  0  0  0  0  0  0  0  0  0  0  0
   50.2940   80.7540   21.3100 H   0  0  0  0  0  0  0  0  0  0  0  0
   51.9861   82.4092   25.1520 H   0  0  0  0  0  0  0  0  0  0  0  0
   52.6722   81.0309   27.1184 H   0  0  0  0  0  0  0  0  0  0  0  0
   54.8712   77.5361   29.3413 H   0  0  0  0  0  0  0  0  0  0  0  0
  1  2  1  0
  2  3  1  0
  2  4  1  0
  4  5  2  0
  5  6  1  0
  6  7  2  0
  7  8  1  0
  8  9  1  0
  9 10  1  0
 10 11  2  0
 11 12  1  0
 12 13  1  0
 13 14  1  0
 13 15  2  0
 13 16  2  0
 12 17  2  0
 17 18  1  0
  7 19  1  0
 19 20  2  0
 20  4  1  0
 18  9  2  0
  1 21  1  0
  1 22  1  0
  1 23  1  0
  2 24  1  0
  3 25  1  0
  3 26  1  0
  3 27  1  0
  5 28  1  0
  6 29  1  0
  8 30  1  0
  8 31  1  0
 10 32  1  0
 11 33  1  0
 14 34  1  0
 14 35  1  0
 17 36  1  0
 18 37  1  0
 19 38  1  0
M  END
>  <meeko>  (1) 
{"is_sidechain": false}

>  <smiles>  (1) 
CC(C)c1ccc(Cc2ccc(S(N)(=O)=O)cc2)cn1

>  <vina_score>  (1) 
-8.048

>  <job_id>  (1) 
3e0b5bf038adb217

$$$$
