
     RDKit          3D

 63 66  0  0  0  0  0  0  0  0999 V2000
   52.7210   81.7630   24.0860 C   0  0  0  0  0  0  0  0  0  0  0  0
   53.1610   80.5150   24.7600 C   0  0  0  0  0  0  0  0  0  0  0  0
   52.9290   79.3140   24.2730 N   0  0  0  0  0  0  0  0  0  0  0  0
   53.4480   78.4350   25.1740 C   0  0  0  0  0  0  0  0  0  0  0  0
   54.0090   79.0860   26.2560 C   0  0  0  0  0  0  0  0  0  0  0  0
   54.6190   78.5100   27.4520 C   0  0  0  0  0  0  0  0  0  0  0  0
   55.9200   78.8300   27.6380 N   0  0  0  0  0  0  0  0  0  0  0  0
   56.5310   78.3530   28.7380 C   0  0  0  0  0  0  0  0  0  0  0  0
   57.8630   78.7260   28.8720 N   0  0  0  0  0  0  0  0  0  0  0  0
   58.5250   79.7410   29.5710 C   0  0  0  0  0  0  0  0  0  0  0  0
   58.5240   79.8570   30.9660 C   0  0  0  0  0  0  0  0  0  0  0  0
   59.2030   80.8990   31.6100 C   0  0  0  0  0  0  0  0  0  0  0  0
   59.8800   81.8590   30.8580 C   0  0  0  0  0  0  0  0  0  0  0  0
   60.6200   82.9660   31.5050 C   0  0  0  0  0  0  0  0  0  0  0  0
   59.9830   83.9390   31.9040 O   0  0  0  0  0  0  0  0  0  0  0  0
   61.9880   82.8500   31.6580 N   0  0  0  0  0  0  0  0  0  0  0  0
   62.5470   82.1720   32.8100 C   0  0  0  0  0  0  0  0  0  0  0  0
   64.0520   82.3110   32.6450 C   0  0  0  0  0  0  0  0  0  0  0  0
   64.2340   82.2650   31.1180 C   0  0  2  0  0  0  0  0  0  0  0  0
   65.5430   82.7580   30.6480 N   0  0  0  0  0  0  0  0  0  0  0  0
   66.0320   83.8690   31.4700 C   0  0  0  0  0  0  0  0  0  0  0  0
   66.5430   81.6850   30.6370 C   0  0  0  0  0  0  0  0  0  0  0  0
   63.0180   83.1020   30.6560 C   0  0  0  0  0  0  0  0  0  0  0  0
   59.9160   81.7510   29.4680 C   0  0  0  0  0  0  0  0  0  0  0  0
   59.2380   80.7040   28.8350 C   0  0  0  0  0  0  0  0  0  0  0  0
   55.9110   77.5820   29.6450 N   0  0  0  0  0  0  0  0  0  0  0  0
   54.6090   77.2920   29.4320 C   0  0  0  0  0  0  0  0  0  0  0  0
   53.9090   77.7390   28.3440 C   0  0  0  0  0  0  0  0  0  0  0  0
   52.6180   77.4240   28.1790 F   0  0  0  0  0  0  0  0  0  0  0  0
   53.8670   80.4370   25.9490 N   0  0  0  0  0  0  0  0  0  0  0  0
   54.4090   81.5460   26.7370 C   0  0  0  0  0  0  0  0  0  0  0  0
   53.3120   82.4880   27.2320 C   0  0  0  0  0  0  0  0  0  0  0  0
   55.5450   82.3120   26.0520 C   0  0  0  0  0  0  0  0  0  0  0  0
   52.4559   82.5150   24.8437 H   0  0  0  0  0  0  0  0  0  0  0  0
   53.5377   82.1478   23.4575 H   0  0  0  0  0  0  0  0  0  0  0  0
   51.8436   81.5505   23.4575 H   0  0  0  0  0  0  0  0  0  0  0  0
   53.4237   77.3417   25.0552 H   0  0  0  0  0  0  0  0  0  0  0  0
   58.4360   78.1120   28.3110 H   0  0  0  0  0  0  0  0  0  0  0  0
   57.9792   79.1151   31.5683 H   0  0  0  0  0  0  0  0  0  0  0  0
   59.2024   80.9603   32.7083 H   0  0  0  0  0  0  0  0  0  0  0  0
   62.2128   82.6509   33.7422 H   0  0  0  0  0  0  0  0  0  0  0  0
   62.2296   81.1205   32.8694 H   0  0  0  0  0  0  0  0  0  0  0  0
   64.4092   83.2660   33.0579 H   0  0  0  0  0  0  0  0  0  0  0  0
   64.6215   81.5332   33.1748 H   0  0  0  0  0  0  0  0  0  0  0  0
   64.2535   81.2491   30.6967 H   0  0  0  0  0  0  0  0  0  0  0  0
   65.9200   83.6146   32.5343 H   0  0  0  0  0  0  0  0  0  0  0  0
   67.0935   84.0512   31.2462 H   0  0  0  0  0  0  0  0  0  0  0  0
   65.4494   84.7748   31.2462 H   0  0  0  0  0  0  0  0  0  0  0  0
   66.7983   81.4111   31.6713 H   0  0  0  0  0  0  0  0  0  0  0  0
   66.1333   80.8073   30.1157 H   0  0  0  0  0  0  0  0  0  0  0  0
   67.4474   82.0320   30.1157 H   0  0  0  0  0  0  0  0  0  0  0  0
   63.2737   84.1714   30.6239 H   0  0  0  0  0  0  0  0  0  0  0  0
   62.6870   82.8284   29.6433 H   0  0  0  0  0  0  0  0  0  0  0  0
   60.4756   82.4866   28.8716 H   0  0  0  0  0  0  0  0  0  0  0  0
   59.2631   80.6324   27.7376 H   0  0  0  0  0  0  0  0  0  0  0  0
   54.0854   76.6657   30.1693 H   0  0  0  0  0  0  0  0  0  0  0  0
   54.8688   81.0691   27.6152 H   0  0  0  0  0  0  0  0  0  0  0  0
   53.3037   82.4952   28.3319 H   0  0  0  0  0  0  0  0  0  0  0  0
   53.5065   83.5048   26.8602 H   0  0  0  0  0  0  0  0  0  0  0  0
   52.3363   82.1420   26.8602 H   0  0  0  0  0  0  0  0  0  0  0  0
   56.2014   82.7546   26.8157 H   0  0  0  0  0  0  0  0  0  0  0  0
   56.1268   81.6210   25.4242 H   0  0  0  0  0  0  0  0  0  0  0  0
   55.1225   83.1104   25.4242 H   0  0  0  0  0  0  0  0  0  0  0  0
  1  2  1  0
  2  3  2  0
  3  4  1  0
  4  5  2  0
  5  6  1  0
  6  7  2  0
  7  8  1  0
  8  9  1  0
  9 10  1  0
 10 11  1  0
 11 12  2  0
 12 13  1  0
 13 14  1  0
 14 15  2  0
 14 16  1  0
 16 17  1  0
 17 18  1  0
 18 19  1  0
 19 20  1  0
 20 21  1  0
 20 22  1  0
 19 23  1  0
 13 24  2  0
 24 25  1  0
  8 26  2  0
 26 27  1  0
 27 28  2  0
 28 29  1  0
  5 30  1  0
 30 31  1  0
 31 32  1  0
 31 33  1  0
 30  2  1  0
 28  6  1  0
 25 10  2  0
 23 16  1  0
  1 34  1  0
  1 35  1  0
  1 36  1  0
  4 37  1  0
  9 38  1  0
 11 39  1  0
 12 40  1  0
 17 41  1  0
 17 42  1  0
 18 43  1  0
 18 44  1  0
 19 45  1  6
 21 46  1  0
 21 47  1  0
 21 48  1  0
 22 49  1  0
 22 50  1  0
 22 51  1  0
 23 52  1  0
 23 53  1  0
 24 54  1  0
 25 55  1  0
 27 56  1  0
 31 57  1  0
 32 58  1  0
 32 59  1  0
 32 60  1  0
 33 61  1  0
 33 62  1  0
 33 63  1  0
M  END
>  <meeko>  (1) 
{"is_sidechain": false}

>  <smiles>  (1) 
Cc1ncc(-c2nc(Nc3ccc(C(=O)N4CC[C@H](N(C)C)C4)cc3)ncc2F)n1C(C)C

>  <vina_score>  (1) 
-9.429

>  <job_id>  (1) 
3e288a0478ab14a8

$$$$
