
     RDKit          3D

 55 57  0  0  0  0  0  0  0  0999 V2000
   63.3850   81.3700   33.2700 C   0  0  0  0  0  0  0  0  0  0  0  0
   62.7530   82.1880   32.4060 C   0  0  0  0  0  0  0  0  0  0  0  0
   63.4310   82.4640   31.0820 C   0  0  0  0  0  0  0  0  0  0  0  0
   61.4850   82.7500   32.6710 N   0  0  0  0  0  0  0  0  0  0  0  0
   61.1400   83.0820   34.0620 C   0  0  0  0  0  0  0  0  0  0  0  0
   60.5790   83.0760   31.6330 C   0  0  0  0  0  0  0  0  0  0  0  0
   60.3210   84.2060   31.2250 O   0  0  0  0  0  0  0  0  0  0  0  0
   59.8740   81.9720   30.9340 C   0  0  0  0  0  0  0  0  0  0  0  0
   59.9370   81.8980   29.5430 C   0  0  0  0  0  0  0  0  0  0  0  0
   59.2970   80.8490   28.8760 C   0  0  0  0  0  0  0  0  0  0  0  0
   58.6040   79.8460   29.5790 C   0  0  0  0  0  0  0  0  0  0  0  0
   57.9630   78.8420   28.8430 N   0  0  0  0  0  0  0  0  0  0  0  0
   56.6460   78.4070   28.7440 C   0  0  0  0  0  0  0  0  0  0  0  0
   56.0930   77.5890   29.6540 N   0  0  0  0  0  0  0  0  0  0  0  0
   54.8100   77.2180   29.4590 C   0  0  0  0  0  0  0  0  0  0  0  0
   54.0570   77.6420   28.3990 C   0  0  0  0  0  0  0  0  0  0  0  0
   52.7870   77.2430   28.2520 F   0  0  0  0  0  0  0  0  0  0  0  0
   54.6880   78.4960   27.5230 C   0  0  0  0  0  0  0  0  0  0  0  0
   54.0300   79.0150   26.3250 C   0  0  0  0  0  0  0  0  0  0  0  0
   53.3760   78.3160   25.3280 C   0  0  0  0  0  0  0  0  0  0  0  0
   52.9350   79.1410   24.3400 N   0  0  0  0  0  0  0  0  0  0  0  0
   53.2930   80.3580   24.6960 C   0  0  0  0  0  0  0  0  0  0  0  0
   53.0280   81.5590   23.8630 C   0  0  0  0  0  0  0  0  0  0  0  0
   53.9220   80.3460   25.9310 N   0  0  0  0  0  0  0  0  0  0  0  0
   54.3630   81.5000   26.7160 C   0  0  0  0  0  0  0  0  0  0  0  0
   55.5640   82.2010   26.0800 C   0  0  0  0  0  0  0  0  0  0  0  0
   53.2500   82.4930   27.0630 C   0  0  0  0  0  0  0  0  0  0  0  0
   55.9760   78.8810   27.6790 N   0  0  0  0  0  0  0  0  0  0  0  0
   58.5680   79.9340   30.9760 C   0  0  0  0  0  0  0  0  0  0  0  0
   59.2090   80.9790   31.6540 C   0  0  0  0  0  0  0  0  0  0  0  0
   62.9290   81.1413   34.2446 H   0  0  0  0  0  0  0  0  0  0  0  0
   64.3570   80.9309   33.0009 H   0  0  0  0  0  0  0  0  0  0  0  0
   64.4359   82.8731   31.2629 H   0  0  0  0  0  0  0  0  0  0  0  0
   63.5136   81.5279   30.5102 H   0  0  0  0  0  0  0  0  0  0  0  0
   62.8364   83.1917   30.5102 H   0  0  0  0  0  0  0  0  0  0  0  0
   61.7606   82.4848   34.7462 H   0  0  0  0  0  0  0  0  0  0  0  0
   61.3235   84.1519   34.2399 H   0  0  0  0  0  0  0  0  0  0  0  0
   60.0779   82.8576   34.2399 H   0  0  0  0  0  0  0  0  0  0  0  0
   60.4875   82.6611   28.9733 H   0  0  0  0  0  0  0  0  0  0  0  0
   59.3360   80.8068   27.7775 H   0  0  0  0  0  0  0  0  0  0  0  0
   58.5590   78.1990   28.3440 H   0  0  0  0  0  0  0  0  0  0  0  0
   54.3462   76.5397   30.1903 H   0  0  0  0  0  0  0  0  0  0  0  0
   53.2299   77.2258   25.3327 H   0  0  0  0  0  0  0  0  0  0  0  0
   52.8373   82.4234   24.5161 H   0  0  0  0  0  0  0  0  0  0  0  0
   53.9023   81.7650   23.2280 H   0  0  0  0  0  0  0  0  0  0  0  0
   52.1482   81.3780   23.2280 H   0  0  0  0  0  0  0  0  0  0  0  0
   54.6851   81.0774   27.6791 H   0  0  0  0  0  0  0  0  0  0  0  0
   56.2245   82.5865   26.8706 H   0  0  0  0  0  0  0  0  0  0  0  0
   56.1185   81.4847   25.4559 H   0  0  0  0  0  0  0  0  0  0  0  0
   55.2130   83.0360   25.4559 H   0  0  0  0  0  0  0  0  0  0  0  0
   53.1589   82.5743   28.1562 H   0  0  0  0  0  0  0  0  0  0  0  0
   53.4938   83.4792   26.6410 H   0  0  0  0  0  0  0  0  0  0  0  0
   52.2979   82.1388   26.6410 H   0  0  0  0  0  0  0  0  0  0  0  0
   58.0266   79.1687   31.5515 H   0  0  0  0  0  0  0  0  0  0  0  0
   59.1880   81.0166   32.7532 H   0  0  0  0  0  0  0  0  0  0  0  0
  1  2  2  0
  2  3  1  0
  2  4  1  0
  4  5  1  0
  4  6  1  0
  6  7  2  0
  6  8  1  0
  8  9  1  0
  9 10  2  0
 10 11  1  0
 11 12  1  0
 12 13  1  0
 13 14  2  0
 14 15  1  0
 15 16  2  0
 16 17  1  0
 16 18  1  0
 18 19  1  0
 19 20  2  0
 20 21  1  0
 21 22  2  0
 22 23  1  0
 22 24  1  0
 24 25  1  0
 25 26  1  0
 25 27  1  0
 18 28  2  0
 11 29  2  0
 29 30  1  0
 30  8  2  0
 28 13  1  0
 24 19  1  0
  1 31  1  0
  1 32  1  0
  3 33  1  0
  3 34  1  0
  3 35  1  0
  5 36  1  0
  5 37  1  0
  5 38  1  0
  9 39  1  0
 10 40  1  0
 12 41  1  0
 15 42  1  0
 20 43  1  0
 23 44  1  0
 23 45  1  0
 23 46  1  0
 25 47  1  0
 26 48  1  0
 26 49  1  0
 26 50  1  0
 27 51  1  0
 27 52  1  0
 27 53  1  0
 29 54  1  0
 30 55  1  0
M  END
>  <meeko>  (1) 
{"is_sidechain": false}

>  <smiles>  (1) 
C=C(C)N(C)C(=O)c1ccc(Nc2ncc(F)c(-c3cnc(C)n3C(C)C)n2)cc1

>  <vina_score>  (1) 
-8.919

>  <job_id>  (1) 
3e46eae1a06326d6

$$$$
