
     RDKit          3D

 44 47  0  0  0  0  0  0  0  0999 V2000
   61.8160   84.3730   31.4560 O   0  0  0  0  0  0  0  0  0  0  0  0
   62.1680   83.0070   31.7700 S   0  0  0  0  0  0  0  0  0  0  0  0
   62.6370   82.6160   33.0800 O   0  0  0  0  0  0  0  0  0  0  0  0
   63.3090   82.5300   30.6520 N   0  0  0  0  0  0  0  0  0  0  0  0
   64.3610   81.5790   31.0200 C   0  0  0  0  0  0  0  0  0  0  0  0
   65.6150   82.3630   31.4130 C   0  0  0  0  0  0  0  0  0  0  0  0
   65.6850   82.4950   32.8340 O   0  0  0  0  0  0  0  0  0  0  0  0
   60.7740   81.9840   31.3560 C   0  0  0  0  0  0  0  0  0  0  0  0
   60.0260   81.3770   32.3680 C   0  0  0  0  0  0  0  0  0  0  0  0
   58.9210   80.5920   32.0270 C   0  0  0  0  0  0  0  0  0  0  0  0
   58.5640   80.4140   30.6860 C   0  0  0  0  0  0  0  0  0  0  0  0
   57.4400   79.6480   30.3550 N   0  0  0  0  0  0  0  0  0  0  0  0
   57.2250   79.4780   29.0840 C   0  0  0  0  0  0  0  0  0  0  0  0
   56.0750   78.6930   28.6810 C   0  0  0  0  0  0  0  0  0  0  0  0
   55.7320   77.4860   29.2810 C   0  0  0  0  0  0  0  0  0  0  0  0
   56.3040   76.8080   30.2720 O   0  0  0  0  0  0  0  0  0  0  0  0
   54.6070   76.9800   28.6910 N   0  0  0  0  0  0  0  0  0  0  0  0
   54.1760   77.8210   27.7000 C   0  0  0  0  0  0  0  0  0  0  0  0
   53.0930   77.7580   26.8190 C   0  0  0  0  0  0  0  0  0  0  0  0
   52.9310   78.8170   25.8960 C   0  0  0  0  0  0  0  0  0  0  0  0
   53.8310   79.9050   25.8640 C   0  0  0  0  0  0  0  0  0  0  0  0
   53.8010   81.0060   25.0250 N   0  0  0  0  0  0  0  0  0  0  0  0
   54.8180   81.7900   25.3180 C   0  0  0  0  0  0  0  0  0  0  0  0
   55.8430   81.2560   26.5900 S   0  0  0  0  0  0  0  0  0  0  0  0
   54.8830   79.9060   26.7650 C   0  0  0  0  0  0  0  0  0  0  0  0
   55.0650   78.8870   27.6730 C   0  0  0  0  0  0  0  0  0  0  0  0
   59.3040   81.0500   29.6840 C   0  0  0  0  0  0  0  0  0  0  0  0
   60.4110   81.8350   30.0130 C   0  0  0  0  0  0  0  0  0  0  0  0
   63.0230   82.5630   29.6720 H   0  0  0  0  0  0  0  0  0  0  0  0
   64.0257   80.9666   31.8700 H   0  0  0  0  0  0  0  0  0  0  0  0
   64.5833   80.9181   30.1693 H   0  0  0  0  0  0  0  0  0  0  0  0
   66.5063   81.8285   31.0527 H   0  0  0  0  0  0  0  0  0  0  0  0
   65.5710   83.3643   30.9597 H   0  0  0  0  0  0  0  0  0  0  0  0
   64.8830   82.0910   33.2070 H   0  0  0  0  0  0  0  0  0  0  0  0
   60.3041   81.5156   33.4232 H   0  0  0  0  0  0  0  0  0  0  0  0
   58.3278   80.1107   32.8186 H   0  0  0  0  0  0  0  0  0  0  0  0
   57.8984   79.9185   28.3340 H   0  0  0  0  0  0  0  0  0  0  0  0
   56.1250   75.8590   30.0820 H   0  0  0  0  0  0  0  0  0  0  0  0
   54.1710   76.1100   28.9620 H   0  0  0  0  0  0  0  0  0  0  0  0
   52.3897   76.9125   26.8428 H   0  0  0  0  0  0  0  0  0  0  0  0
   52.0881   78.7930   25.1896 H   0  0  0  0  0  0  0  0  0  0  0  0
   55.0007   82.7318   24.7799 H   0  0  0  0  0  0  0  0  0  0  0  0
   59.0121   80.9311   28.6301 H   0  0  0  0  0  0  0  0  0  0  0  0
   60.9928   82.3321   29.2228 H   0  0  0  0  0  0  0  0  0  0  0  0
  1  2  2  0
  2  3  2  0
  2  4  1  0
  4  5  1  0
  5  6  1  0
  6  7  1  0
  2  8  1  0
  8  9  1  0
  9 10  2  0
 10 11  1  0
 11 12  1  0
 12 13  2  3
 13 14  1  0
 14 15  2  0
 15 16  1  0
 15 17  1  0
 17 18  1  0
 18 19  2  0
 19 20  1  0
 20 21  2  0
 21 22  1  0
 22 23  2  0
 23 24  1  0
 24 25  1  0
 25 26  2  0
 11 27  2  0
 27 28  1  0
 28  8  2  0
 26 14  1  0
 26 18  1  0
 25 21  1  0
  4 29  1  0
  5 30  1  0
  5 31  1  0
  6 32  1  0
  6 33  1  0
  7 34  1  0
  9 35  1  0
 10 36  1  0
 13 37  1  0
 16 38  1  0
 17 39  1  0
 19 40  1  0
 20 41  1  0
 23 42  1  0
 27 43  1  0
 28 44  1  0
M  END
>  <meeko>  (1) 
{"is_sidechain": false}

>  <smiles>  (1) 
O=S(=O)(NCCO)c1ccc(N=Cc2c(O)[nH]c3ccc4ncsc4c23)cc1

>  <vina_score>  (1) 
-7.897

>  <job_id>  (1) 
3e4d8dd279749102

$$$$
