
     RDKit          3D

 66 69  0  0  0  0  0  0  0  0999 V2000
   66.4000   86.2940   29.0390 C   0  0  0  0  0  0  0  0  0  0  0  0
   66.3860   84.8250   29.3540 C   0  0  0  0  0  0  0  0  0  0  0  0
   66.8100   83.9700   28.5880 O   0  0  0  0  0  0  0  0  0  0  0  0
   65.8220   84.4390   30.7140 C   0  0  0  0  0  0  0  0  0  0  0  0
   66.5920   84.3980   31.6670 O   0  0  0  0  0  0  0  0  0  0  0  0
   64.3710   84.1460   30.8720 C   0  0  0  0  0  0  0  0  0  0  0  0
   63.4560   85.2120   30.8960 C   0  0  0  0  0  0  0  0  0  0  0  0
   62.0900   84.9780   31.0790 C   0  0  0  0  0  0  0  0  0  0  0  0
   61.6230   83.6740   31.2600 C   0  0  0  0  0  0  0  0  0  0  0  0
   60.1770   83.3690   31.4550 C   0  0  0  0  0  0  0  0  0  0  0  0
   59.4630   84.1300   32.1000 O   0  0  0  0  0  0  0  0  0  0  0  0
   59.5770   82.1520   30.8630 C   0  0  0  0  0  0  0  0  0  0  0  0
   59.2100   82.1780   29.5140 C   0  0  0  0  0  0  0  0  0  0  0  0
   58.6310   81.0480   28.9300 C   0  0  0  0  0  0  0  0  0  0  0  0
   58.3920   79.8820   29.6740 C   0  0  0  0  0  0  0  0  0  0  0  0
   57.8210   78.7840   29.0230 N   0  0  0  0  0  0  0  0  0  0  0  0
   56.5180   78.3220   28.8660 C   0  0  0  0  0  0  0  0  0  0  0  0
   55.9590   77.4570   29.7280 N   0  0  0  0  0  0  0  0  0  0  0  0
   54.6980   77.0490   29.4720 C   0  0  0  0  0  0  0  0  0  0  0  0
   53.9750   77.4760   28.3920 C   0  0  0  0  0  0  0  0  0  0  0  0
   52.7270   77.0400   28.1810 F   0  0  0  0  0  0  0  0  0  0  0  0
   54.6120   78.3730   27.5640 C   0  0  0  0  0  0  0  0  0  0  0  0
   53.9880   78.9020   26.3540 C   0  0  0  0  0  0  0  0  0  0  0  0
   53.3420   78.2160   25.3450 C   0  0  0  0  0  0  0  0  0  0  0  0
   52.9350   79.0510   24.3490 N   0  0  0  0  0  0  0  0  0  0  0  0
   53.3040   80.2610   24.7150 C   0  0  0  0  0  0  0  0  0  0  0  0
   53.0700   81.4680   23.8820 C   0  0  0  0  0  0  0  0  0  0  0  0
   53.9070   80.2360   25.9620 N   0  0  0  0  0  0  0  0  0  0  0  0
   54.3520   81.3810   26.7590 C   0  0  0  0  0  0  0  0  0  0  0  0
   55.5950   82.0440   26.1650 C   0  0  0  0  0  0  0  0  0  0  0  0
   53.2550   82.4060   27.0620 C   0  0  0  0  0  0  0  0  0  0  0  0
   55.8790   78.7970   27.7840 N   0  0  0  0  0  0  0  0  0  0  0  0
   58.7600   79.8840   31.0260 C   0  0  0  0  0  0  0  0  0  0  0  0
   59.3520   81.0060   31.6380 C   0  0  0  0  0  0  0  0  0  0  0  0
   59.6970   80.9570   33.1000 C   0  0  0  0  0  0  0  0  0  0  0  0
   62.5310   82.6070   31.2320 C   0  0  0  0  0  0  0  0  0  0  0  0
   63.9070   82.8250   31.0370 C   0  0  0  0  0  0  0  0  0  0  0  0
   64.8280   81.6350   31.0230 C   0  0  0  0  0  0  0  0  0  0  0  0
   66.4055   86.8699   29.9762 H   0  0  0  0  0  0  0  0  0  0  0  0
   67.3005   86.5352   28.4551 H   0  0  0  0  0  0  0  0  0  0  0  0
   65.5043   86.5523   28.4551 H   0  0  0  0  0  0  0  0  0  0  0  0
   63.8188   86.2427   30.7693 H   0  0  0  0  0  0  0  0  0  0  0  0
   61.3829   85.8206   31.0805 H   0  0  0  0  0  0  0  0  0  0  0  0
   59.3765   83.0850   28.9143 H   0  0  0  0  0  0  0  0  0  0  0  0
   58.3568   81.0729   27.8650 H   0  0  0  0  0  0  0  0  0  0  0  0
   58.4490   78.1640   28.5340 H   0  0  0  0  0  0  0  0  0  0  0  0
   54.2281   76.3373   30.1668 H   0  0  0  0  0  0  0  0  0  0  0  0
   53.1763   77.1285   25.3454 H   0  0  0  0  0  0  0  0  0  0  0  0
   52.9015   82.3371   24.5349 H   0  0  0  0  0  0  0  0  0  0  0  0
   53.9493   81.6514   23.2470 H   0  0  0  0  0  0  0  0  0  0  0  0
   52.1859   81.3095   23.2470 H   0  0  0  0  0  0  0  0  0  0  0  0
   54.6271   80.9548   27.7350 H   0  0  0  0  0  0  0  0  0  0  0  0
   56.2486   82.3926   26.9782 H   0  0  0  0  0  0  0  0  0  0  0  0
   56.1380   81.3157   25.5447 H   0  0  0  0  0  0  0  0  0  0  0  0
   55.2927   82.9007   25.5447 H   0  0  0  0  0  0  0  0  0  0  0  0
   53.1423   82.5113   28.1511 H   0  0  0  0  0  0  0  0  0  0  0  0
   53.5306   83.3777   26.6262 H   0  0  0  0  0  0  0  0  0  0  0  0
   52.3042   82.0652   26.6262 H   0  0  0  0  0  0  0  0  0  0  0  0
   58.5810   78.9811   31.6283 H   0  0  0  0  0  0  0  0  0  0  0  0
   58.7824   81.0869   33.6971 H   0  0  0  0  0  0  0  0  0  0  0  0
   60.1543   79.9849   33.3365 H   0  0  0  0  0  0  0  0  0  0  0  0
   60.4069   81.7633   33.3365 H   0  0  0  0  0  0  0  0  0  0  0  0
   62.1608   81.5797   31.3650 H   0  0  0  0  0  0  0  0  0  0  0  0
   65.0583   81.3374   32.0566 H   0  0  0  0  0  0  0  0  0  0  0  0
   64.3392   80.7991   30.5011 H   0  0  0  0  0  0  0  0  0  0  0  0
   65.7597   81.8986   30.5011 H   0  0  0  0  0  0  0  0  0  0  0  0
  1  2  1  0
  2  3  2  0
  2  4  1  0
  4  5  2  0
  4  6  1  0
  6  7  1  0
  7  8  2  0
  8  9  1  0
  9 10  1  0
 10 11  2  0
 10 12  1  0
 12 13  1  0
 13 14  2  0
 14 15  1  0
 15 16  1  0
 16 17  1  0
 17 18  2  0
 18 19  1  0
 19 20  2  0
 20 21  1  0
 20 22  1  0
 22 23  1  0
 23 24  2  0
 24 25  1  0
 25 26  2  0
 26 27  1  0
 26 28  1  0
 28 29  1  0
 29 30  1  0
 29 31  1  0
 22 32  2  0
 15 33  2  0
 33 34  1  0
 34 35  1  0
  9 36  2  0
 36 37  1  0
 37 38  1  0
 37  6  2  0
 34 12  2  0
 32 17  1  0
 28 23  1  0
  1 39  1  0
  1 40  1  0
  1 41  1  0
  7 42  1  0
  8 43  1  0
 13 44  1  0
 14 45  1  0
 16 46  1  0
 19 47  1  0
 24 48  1  0
 27 49  1  0
 27 50  1  0
 27 51  1  0
 29 52  1  0
 30 53  1  0
 30 54  1  0
 30 55  1  0
 31 56  1  0
 31 57  1  0
 31 58  1  0
 33 59  1  0
 35 60  1  0
 35 61  1  0
 35 62  1  0
 36 63  1  0
 38 64  1  0
 38 65  1  0
 38 66  1  0
M  END
>  <meeko>  (1) 
{"is_sidechain": false}

>  <smiles>  (1) 
CC(=O)C(=O)c1ccc(C(=O)c2ccc(Nc3ncc(F)c(-c4cnc(C)n4C(C)C)n3)cc2C)cc1C

>  <vina_score>  (1) 
-9.966

>  <job_id>  (1) 
3e52b95739cdca53

$$$$
