
     RDKit          3D

 49 51  0  0  0  0  0  0  0  0999 V2000
   54.3730   79.7390   27.4850 C   0  0  0  0  0  0  0  0  0  0  0  0
   54.4500   78.3480   28.0560 C   0  0  0  0  0  0  0  0  0  0  0  0
   53.4050   77.4440   27.7960 C   0  0  0  0  0  0  0  0  0  0  0  0
   53.4400   76.1460   28.3040 C   0  0  0  0  0  0  0  0  0  0  0  0
   54.5180   75.7310   29.0770 C   0  0  0  0  0  0  0  0  0  0  0  0
   55.5630   76.6160   29.3400 C   0  0  0  0  0  0  0  0  0  0  0  0
   55.5500   77.9300   28.8370 C   0  0  0  0  0  0  0  0  0  0  0  0
   56.6780   78.8200   29.1420 C   0  0  0  0  0  0  0  0  0  0  0  0
   57.0230   79.1090   30.4710 C   0  0  0  0  0  0  0  0  0  0  0  0
   58.0980   79.9550   30.7610 C   0  0  0  0  0  0  0  0  0  0  0  0
   58.8370   80.5360   29.7250 C   0  0  0  0  0  0  0  0  0  0  0  0
   59.9750   81.4290   30.0820 C   0  0  0  0  0  0  0  0  0  0  0  0
   60.5250   82.1060   29.2200 O   0  0  0  0  0  0  0  0  0  0  0  0
   60.3720   81.4150   31.3990 N   0  0  0  0  0  0  0  0  0  0  0  0
   61.5500   82.1110   31.8090 C   0  0  0  0  0  0  0  0  0  0  0  0
   61.7020   81.8210   33.2280 N   0  0  0  0  0  0  0  0  0  0  0  0
   62.9210   81.0170   33.4780 C   0  0  0  0  0  0  0  0  0  0  0  0
   63.0570   80.6120   34.9630 C   0  0  0  0  0  0  0  0  0  0  0  0
   61.8820   79.8600   35.4430 N   0  0  0  0  0  0  0  0  0  0  0  0
   62.0130   79.5450   36.8640 C   0  0  0  0  0  0  0  0  0  0  0  0
   60.6630   80.6480   35.1910 C   0  0  0  0  0  0  0  0  0  0  0  0
   60.5310   81.0530   33.7050 C   0  0  0  0  0  0  0  0  0  0  0  0
   58.5080   80.2450   28.3960 C   0  0  0  0  0  0  0  0  0  0  0  0
   57.4330   79.3970   28.1100 C   0  0  0  0  0  0  0  0  0  0  0  0
   54.3325   80.4705   28.3056 H   0  0  0  0  0  0  0  0  0  0  0  0
   55.2619   79.9310   26.8661 H   0  0  0  0  0  0  0  0  0  0  0  0
   53.4683   79.8318   26.8661 H   0  0  0  0  0  0  0  0  0  0  0  0
   52.5490   77.7648   27.1841 H   0  0  0  0  0  0  0  0  0  0  0  0
   52.6144   75.4504   28.0930 H   0  0  0  0  0  0  0  0  0  0  0  0
   54.5467   74.7079   29.4799 H   0  0  0  0  0  0  0  0  0  0  0  0
   56.4133   76.2807   29.9520 H   0  0  0  0  0  0  0  0  0  0  0  0
   56.4420   78.6656   31.2931 H   0  0  0  0  0  0  0  0  0  0  0  0
   58.3635   80.1644   31.8077 H   0  0  0  0  0  0  0  0  0  0  0  0
   60.1010   80.6540   32.0010 H   0  0  0  0  0  0  0  0  0  0  0  0
   62.4243   81.7501   31.2475 H   0  0  0  0  0  0  0  0  0  0  0  0
   61.4706   83.1918   31.6206 H   0  0  0  0  0  0  0  0  0  0  0  0
   62.8762   80.1051   32.8645 H   0  0  0  0  0  0  0  0  0  0  0  0
   63.7929   81.6336   33.2143 H   0  0  0  0  0  0  0  0  0  0  0  0
   63.9521   79.9831   35.0786 H   0  0  0  0  0  0  0  0  0  0  0  0
   63.1365   81.5329   35.5593 H   0  0  0  0  0  0  0  0  0  0  0  0
   61.6586   80.3971   37.4626 H   0  0  0  0  0  0  0  0  0  0  0  0
   61.4102   78.6555   37.0995 H   0  0  0  0  0  0  0  0  0  0  0  0
   63.0688   79.3453   37.0995 H   0  0  0  0  0  0  0  0  0  0  0  0
   59.7866   80.0465   35.4742 H   0  0  0  0  0  0  0  0  0  0  0  0
   60.7244   81.5689   35.7896 H   0  0  0  0  0  0  0  0  0  0  0  0
   60.4338   80.1415   33.0969 H   0  0  0  0  0  0  0  0  0  0  0  0
   59.6438   81.6960   33.6082 H   0  0  0  0  0  0  0  0  0  0  0  0
   59.0953   80.6835   27.5758 H   0  0  0  0  0  0  0  0  0  0  0  0
   57.1764   79.1798   27.0626 H   0  0  0  0  0  0  0  0  0  0  0  0
  1  2  1  0
  2  3  2  0
  3  4  1  0
  4  5  2  0
  5  6  1  0
  6  7  2  0
  7  8  1  0
  8  9  1  0
  9 10  2  0
 10 11  1  0
 11 12  1  0
 12 13  2  0
 12 14  1  0
 14 15  1  0
 15 16  1  0
 16 17  1  0
 17 18  1  0
 18 19  1  0
 19 20  1  0
 19 21  1  0
 21 22  1  0
 11 23  2  0
 23 24  1  0
  7  2  1  0
 24  8  2  0
 22 16  1  0
  1 25  1  0
  1 26  1  0
  1 27  1  0
  3 28  1  0
  4 29  1  0
  5 30  1  0
  6 31  1  0
  9 32  1  0
 10 33  1  0
 14 34  1  0
 15 35  1  0
 15 36  1  0
 17 37  1  0
 17 38  1  0
 18 39  1  0
 18 40  1  0
 20 41  1  0
 20 42  1  0
 20 43  1  0
 21 44  1  0
 21 45  1  0
 22 46  1  0
 22 47  1  0
 23 48  1  0
 24 49  1  0
M  END
>  <meeko>  (1) 
{"is_sidechain": false}

>  <smiles>  (1) 
Cc1ccccc1-c1ccc(C(=O)NCN2CCN(C)CC2)cc1

>  <vina_score>  (1) 
-8.067

>  <job_id>  (1) 
3e707839d63aa81f

$$$$
