
     RDKit          3D

 42 44  0  0  0  0  0  0  0  0999 V2000
   59.6800   85.0750   33.7870 N   0  0  0  0  0  0  0  0  0  0  0  0
   59.6670   83.8260   33.5200 C   0  0  0  0  0  0  0  0  0  0  0  0
   60.0610   82.8850   34.3960 N   0  0  0  0  0  0  0  0  0  0  0  0
   59.9930   81.5880   33.9800 C   0  0  0  0  0  0  0  0  0  0  0  0
   60.3110   80.6230   34.6540 O   0  0  0  0  0  0  0  0  0  0  0  0
   59.4740   81.5330   32.5780 C   0  0  0  0  0  0  0  0  0  0  0  0
   59.2970   80.3530   31.9740 C   0  0  0  0  0  0  0  0  0  0  0  0
   58.8010   80.1260   30.6600 C   0  0  0  0  0  0  0  0  0  0  0  0
   59.3150   80.3960   29.3970 C   0  0  0  0  0  0  0  0  0  0  0  0
   58.3870   79.9300   28.4330 C   0  0  0  0  0  0  0  0  0  0  0  0
   57.3400   79.3770   29.1340 C   0  0  0  0  0  0  0  0  0  0  0  0
   56.0840   78.7290   28.7630 C   0  0  0  0  0  0  0  0  0  0  0  0
   55.6010   77.6210   29.4640 C   0  0  0  0  0  0  0  0  0  0  0  0
   54.4010   77.0080   29.0980 C   0  0  0  0  0  0  0  0  0  0  0  0
   53.6390   77.4790   28.0140 C   0  0  0  0  0  0  0  0  0  0  0  0
   52.3460   76.7530   27.7010 C   0  0  0  0  0  0  0  0  0  0  0  0
   52.5600   75.3080   27.2400 C   0  0  0  0  0  0  0  0  0  0  0  0
   51.8090   74.9830   26.0760 O   0  0  0  0  0  0  0  0  0  0  0  0
   54.1040   78.6010   27.2940 C   0  0  0  0  0  0  0  0  0  0  0  0
   53.3820   79.1980   26.0960 C   0  0  0  0  0  0  0  0  0  0  0  0
   52.1850   79.7660   26.4430 F   0  0  0  0  0  0  0  0  0  0  0  0
   53.0420   78.2580   25.1570 F   0  0  0  0  0  0  0  0  0  0  0  0
   54.2230   80.2680   25.3960 C   0  0  0  0  0  0  0  0  0  0  0  0
   53.5870   80.7540   24.2960 F   0  0  0  0  0  0  0  0  0  0  0  0
   55.3240   79.2030   27.6840 C   0  0  0  0  0  0  0  0  0  0  0  0
   57.5950   79.4850   30.4690 O   0  0  0  0  0  0  0  0  0  0  0  0
   59.1550   83.1370   32.0200 S   0  0  0  0  0  0  0  0  0  0  0  0
   59.3330   85.5790   32.9610 H   0  0  0  0  0  0  0  0  0  0  0  0
   60.3850   83.1320   35.3170 H   0  0  0  0  0  0  0  0  0  0  0  0
   59.5643   79.4596   32.5574 H   0  0  0  0  0  0  0  0  0  0  0  0
   60.2760   80.8866   29.1830 H   0  0  0  0  0  0  0  0  0  0  0  0
   58.4844   79.9971   27.3394 H   0  0  0  0  0  0  0  0  0  0  0  0
   56.1740   77.2262   30.3159 H   0  0  0  0  0  0  0  0  0  0  0  0
   54.0443   76.1385   29.6696 H   0  0  0  0  0  0  0  0  0  0  0  0
   51.7233   76.7418   28.6077 H   0  0  0  0  0  0  0  0  0  0  0  0
   51.8618   77.2913   26.8729 H   0  0  0  0  0  0  0  0  0  0  0  0
   53.6282   75.1638   27.0205 H   0  0  0  0  0  0  0  0  0  0  0  0
   52.2168   74.6479   28.0502 H   0  0  0  0  0  0  0  0  0  0  0  0
   51.4270   75.8020   25.7130 H   0  0  0  0  0  0  0  0  0  0  0  0
   54.4077   81.0947   26.0978 H   0  0  0  0  0  0  0  0  0  0  0  0
   55.1709   79.8107   25.0758 H   0  0  0  0  0  0  0  0  0  0  0  0
   55.6893   80.0742   27.1204 H   0  0  0  0  0  0  0  0  0  0  0  0
  1  2  2  3
  2  3  1  0
  3  4  1  0
  4  5  2  0
  4  6  1  0
  6  7  2  0
  7  8  1  0
  8  9  2  0
  9 10  1  0
 10 11  2  0
 11 12  1  0
 12 13  1  0
 13 14  2  0
 14 15  1  0
 15 16  1  0
 16 17  1  0
 17 18  1  0
 15 19  2  0
 19 20  1  0
 20 21  1  0
 20 22  1  0
 20 23  1  0
 23 24  1  0
 19 25  1  0
 11 26  1  0
  6 27  1  0
 27  2  1  0
 26  8  1  0
 25 12  2  0
  1 28  1  0
  3 29  1  0
  7 30  1  0
  9 31  1  0
 10 32  1  0
 13 33  1  0
 14 34  1  0
 16 35  1  0
 16 36  1  0
 17 37  1  0
 17 38  1  0
 18 39  1  0
 23 40  1  0
 23 41  1  0
 25 42  1  0
M  END
>  <meeko>  (1) 
{"is_sidechain": false}

>  <smiles>  (1) 
N=C1NC(=O)/C(=C/c2ccc(-c3ccc(CCO)c(C(F)(F)CF)c3)o2)S1

>  <vina_score>  (1) 
-9.135

>  <job_id>  (1) 
3e74ce96b024c23c

$$$$
