
     RDKit          3D

 42 43  0  0  0  0  0  0  0  0999 V2000
   61.2280   83.8350   31.5580 C   0  0  0  0  0  0  0  0  0  0  0  0
   59.8470   83.4410   31.0280 C   0  0  0  0  0  0  0  0  0  0  0  0
   58.8090   84.4660   31.4760 C   0  0  0  0  0  0  0  0  0  0  0  0
   59.4550   82.0470   31.5280 C   0  0  0  0  0  0  0  0  0  0  0  0
   59.5460   81.7570   32.7230 O   0  0  0  0  0  0  0  0  0  0  0  0
   58.9410   81.1460   30.6060 N   0  0  0  0  0  0  0  0  0  0  0  0
   58.4270   79.8570   31.0870 C   0  0  0  0  0  0  0  0  0  0  0  0
   57.2150   79.3700   30.2700 C   0  0  0  0  0  0  0  0  0  0  0  0
   57.4710   79.3730   28.8060 N   0  0  0  0  0  0  0  0  0  0  0  0
   56.3310   79.4540   28.0030 C   0  0  0  0  0  0  0  0  0  0  0  0
   56.3100   80.3160   26.8950 C   0  0  0  0  0  0  0  0  0  0  0  0
   55.1860   80.4350   26.0660 C   0  0  0  0  0  0  0  0  0  0  0  0
   54.0370   79.6880   26.3230 C   0  0  0  0  0  0  0  0  0  0  0  0
   52.9470   79.8510   25.4530 N   0  0  0  0  0  0  0  0  0  0  0  0
   52.2670   80.9880   25.1690 C   0  0  0  0  0  0  0  0  0  0  0  0
   52.4040   82.1280   25.5740 O   0  0  0  0  0  0  0  0  0  0  0  0
   51.2940   80.7090   24.2830 O   0  0  0  0  0  0  0  0  0  0  0  0
   54.0320   78.8300   27.4170 C   0  0  0  0  0  0  0  0  0  0  0  0
   55.1630   78.7200   28.2440 C   0  0  0  0  0  0  0  0  0  0  0  0
   58.7430   79.9870   28.3900 C   0  0  0  0  0  0  0  0  0  0  0  0
   59.0040   81.3020   29.1450 C   0  0  0  0  0  0  0  0  0  0  0  0
   61.2135   83.8309   32.6579 H   0  0  0  0  0  0  0  0  0  0  0  0
   61.9778   83.1149   31.1985 H   0  0  0  0  0  0  0  0  0  0  0  0
   61.4850   84.8423   31.1985 H   0  0  0  0  0  0  0  0  0  0  0  0
   59.8856   83.4193   29.9289 H   0  0  0  0  0  0  0  0  0  0  0  0
   58.7762   84.4984   32.5750 H   0  0  0  0  0  0  0  0  0  0  0  0
   59.0823   85.4583   31.0879 H   0  0  0  0  0  0  0  0  0  0  0  0
   57.8202   84.1802   31.0879 H   0  0  0  0  0  0  0  0  0  0  0  0
   59.2281   79.1068   31.0131 H   0  0  0  0  0  0  0  0  0  0  0  0
   58.0988   79.9926   32.1281 H   0  0  0  0  0  0  0  0  0  0  0  0
   56.9696   78.3442   30.5821 H   0  0  0  0  0  0  0  0  0  0  0  0
   56.3838   80.0641   30.4632 H   0  0  0  0  0  0  0  0  0  0  0  0
   57.2036   80.9168   26.6704 H   0  0  0  0  0  0  0  0  0  0  0  0
   55.2105   81.1220   25.2073 H   0  0  0  0  0  0  0  0  0  0  0  0
   52.6020   79.0410   24.9580 H   0  0  0  0  0  0  0  0  0  0  0  0
   51.7880   80.2740   23.5580 H   0  0  0  0  0  0  0  0  0  0  0  0
   53.1352   78.2322   27.6371 H   0  0  0  0  0  0  0  0  0  0  0  0
   55.1298   78.0373   29.1059 H   0  0  0  0  0  0  0  0  0  0  0  0
   59.5642   79.2855   28.5983 H   0  0  0  0  0  0  0  0  0  0  0  0
   58.6845   80.2106   27.3145 H   0  0  0  0  0  0  0  0  0  0  0  0
   60.0049   81.6694   28.8742 H   0  0  0  0  0  0  0  0  0  0  0  0
   58.2149   82.0112   28.8547 H   0  0  0  0  0  0  0  0  0  0  0  0
  1  2  1  0
  2  3  1  0
  2  4  1  0
  4  5  2  0
  4  6  1  0
  6  7  1  0
  7  8  1  0
  8  9  1  0
  9 10  1  0
 10 11  1  0
 11 12  2  0
 12 13  1  0
 13 14  1  0
 14 15  1  0
 15 16  2  0
 15 17  1  0
 13 18  2  0
 18 19  1  0
  9 20  1  0
 20 21  1  0
 21  6  1  0
 19 10  2  0
  1 22  1  0
  1 23  1  0
  1 24  1  0
  2 25  1  0
  3 26  1  0
  3 27  1  0
  3 28  1  0
  7 29  1  0
  7 30  1  0
  8 31  1  0
  8 32  1  0
 11 33  1  0
 12 34  1  0
 14 35  1  0
 17 36  1  0
 18 37  1  0
 19 38  1  0
 20 39  1  0
 20 40  1  0
 21 41  1  0
 21 42  1  0
M  END
>  <meeko>  (1) 
{"is_sidechain": false}

>  <smiles>  (1) 
CC(C)C(=O)N1CCN(c2ccc(NC(=O)O)cc2)CC1

>  <vina_score>  (1) 
-6.672

>  <job_id>  (1) 
3f18fbea250f2289

$$$$
