
     RDKit          3D

 68 71  0  0  0  0  0  0  0  0999 V2000
   62.0160   79.4250   37.2980 C   0  0  0  0  0  0  0  0  0  0  0  0
   61.8390   79.9290   35.8890 C   0  0  0  0  0  0  0  0  0  0  0  0
   60.4110   80.2340   35.5220 C   0  0  0  0  0  0  0  0  0  0  0  0
   62.9030   80.0860   35.0780 C   0  0  0  0  0  0  0  0  0  0  0  0
   62.9110   80.5470   33.6450 C   0  0  0  0  0  0  0  0  0  0  0  0
   63.2300   82.0470   33.5150 C   0  0  1  0  0  0  0  0  0  0  0  0
   63.9510   82.3600   32.1970 C   0  0  0  0  0  0  0  0  0  0  0  0
   62.8180   82.4930   31.1890 C   0  0  0  0  0  0  0  0  0  0  0  0
   61.6930   82.9780   31.9670 N   0  0  0  0  0  0  0  0  0  0  0  0
   60.4680   83.1850   31.3640 C   0  0  0  0  0  0  0  0  0  0  0  0
   59.9190   84.2830   31.3140 O   0  0  0  0  0  0  0  0  0  0  0  0
   59.7930   82.0330   30.7250 C   0  0  0  0  0  0  0  0  0  0  0  0
   59.2730   81.0250   31.5360 C   0  0  0  0  0  0  0  0  0  0  0  0
   58.6300   79.9250   30.9570 C   0  0  0  0  0  0  0  0  0  0  0  0
   58.5130   79.8010   29.5670 C   0  0  0  0  0  0  0  0  0  0  0  0
   57.8750   78.7310   28.9310 N   0  0  0  0  0  0  0  0  0  0  0  0
   56.5470   78.3400   28.7930 C   0  0  0  0  0  0  0  0  0  0  0  0
   55.9350   77.5590   29.6970 N   0  0  0  0  0  0  0  0  0  0  0  0
   54.6380   77.2560   29.4810 C   0  0  0  0  0  0  0  0  0  0  0  0
   53.9320   77.6990   28.3950 C   0  0  0  0  0  0  0  0  0  0  0  0
   52.6450   77.3700   28.2280 F   0  0  0  0  0  0  0  0  0  0  0  0
   54.6350   78.4810   27.5060 C   0  0  0  0  0  0  0  0  0  0  0  0
   54.0200   79.0550   26.3120 C   0  0  0  0  0  0  0  0  0  0  0  0
   53.4590   78.4020   25.2310 C   0  0  0  0  0  0  0  0  0  0  0  0
   52.9350   79.2800   24.3310 N   0  0  0  0  0  0  0  0  0  0  0  0
   53.1620   80.4810   24.8200 C   0  0  0  0  0  0  0  0  0  0  0  0
   52.7160   81.7290   24.1480 C   0  0  0  0  0  0  0  0  0  0  0  0
   53.8700   80.4050   26.0080 N   0  0  0  0  0  0  0  0  0  0  0  0
   54.4090   81.5150   26.7970 C   0  0  0  0  0  0  0  0  0  0  0  0
   53.3100   82.4680   27.2690 C   0  0  0  0  0  0  0  0  0  0  0  0
   55.5600   82.2680   26.1260 C   0  0  0  0  0  0  0  0  0  0  0  0
   55.9330   78.8140   27.6940 N   0  0  0  0  0  0  0  0  0  0  0  0
   59.0680   80.8190   28.7700 C   0  0  0  0  0  0  0  0  0  0  0  0
   59.7090   81.9240   29.3380 C   0  0  0  0  0  0  0  0  0  0  0  0
   61.9720   82.9150   33.3980 C   0  0  0  0  0  0  0  0  0  0  0  0
   61.7377   80.2173   38.0085 H   0  0  0  0  0  0  0  0  0  0  0  0
   61.3723   78.5473   37.4570 H   0  0  0  0  0  0  0  0  0  0  0  0
   63.0671   79.1425   37.4570 H   0  0  0  0  0  0  0  0  0  0  0  0
   59.8160   80.3611   36.4384 H   0  0  0  0  0  0  0  0  0  0  0  0
   60.3744   81.1602   34.9297 H   0  0  0  0  0  0  0  0  0  0  0  0
   59.9992   79.4035   34.9297 H   0  0  0  0  0  0  0  0  0  0  0  0
   63.8840   79.8488   35.5155 H   0  0  0  0  0  0  0  0  0  0  0  0
   63.6716   79.9747   33.0937 H   0  0  0  0  0  0  0  0  0  0  0  0
   61.9050   80.3802   33.2326 H   0  0  0  0  0  0  0  0  0  0  0  0
   63.8216   82.2637   34.4167 H   0  0  0  0  0  0  0  0  0  0  0  0
   64.5196   83.2985   32.2742 H   0  0  0  0  0  0  0  0  0  0  0  0
   64.6823   81.5874   31.9171 H   0  0  0  0  0  0  0  0  0  0  0  0
   63.0828   83.2114   30.3992 H   0  0  0  0  0  0  0  0  0  0  0  0
   62.5964   81.5424   30.6817 H   0  0  0  0  0  0  0  0  0  0  0  0
   59.3680   81.0943   32.6297 H   0  0  0  0  0  0  0  0  0  0  0  0
   58.2086   79.1431   31.6059 H   0  0  0  0  0  0  0  0  0  0  0  0
   58.4640   78.0760   28.4380 H   0  0  0  0  0  0  0  0  0  0  0  0
   54.1214   76.6204   30.2153 H   0  0  0  0  0  0  0  0  0  0  0  0
   53.4382   77.3086   25.1121 H   0  0  0  0  0  0  0  0  0  0  0  0
   52.4481   82.4786   24.9072 H   0  0  0  0  0  0  0  0  0  0  0  0
   53.5306   82.1184   23.5197 H   0  0  0  0  0  0  0  0  0  0  0  0
   51.8391   81.5139   23.5197 H   0  0  0  0  0  0  0  0  0  0  0  0
   54.8531   81.0406   27.6845 H   0  0  0  0  0  0  0  0  0  0  0  0
   53.2883   82.4868   28.3686 H   0  0  0  0  0  0  0  0  0  0  0  0
   53.5140   83.4799   26.8889 H   0  0  0  0  0  0  0  0  0  0  0  0
   52.3372   82.1228   26.8889 H   0  0  0  0  0  0  0  0  0  0  0  0
   56.2163   82.6974   26.8973 H   0  0  0  0  0  0  0  0  0  0  0  0
   56.1372   81.5723   25.4992 H   0  0  0  0  0  0  0  0  0  0  0  0
   55.1538   83.0755   25.4992 H   0  0  0  0  0  0  0  0  0  0  0  0
   58.9959   80.7437   27.6749 H   0  0  0  0  0  0  0  0  0  0  0  0
   60.1443   82.7026   28.6943 H   0  0  0  0  0  0  0  0  0  0  0  0
   62.1571   83.9216   33.8012 H   0  0  0  0  0  0  0  0  0  0  0  0
   61.1273   82.5000   33.9674 H   0  0  0  0  0  0  0  0  0  0  0  0
  1  2  1  0
  2  3  1  0
  2  4  2  3
  4  5  1  0
  5  6  1  0
  6  7  1  0
  7  8  1  0
  8  9  1  0
  9 10  1  0
 10 11  2  0
 10 12  1  0
 12 13  1  0
 13 14  2  0
 14 15  1  0
 15 16  1  0
 16 17  1  0
 17 18  2  0
 18 19  1  0
 19 20  2  0
 20 21  1  0
 20 22  1  0
 22 23  1  0
 23 24  2  0
 24 25  1  0
 25 26  2  0
 26 27  1  0
 26 28  1  0
 28 29  1  0
 29 30  1  0
 29 31  1  0
 22 32  2  0
 15 33  2  0
 33 34  1  0
  9 35  1  0
 35  6  1  0
 34 12  2  0
 32 17  1  0
 28 23  1  0
  1 36  1  0
  1 37  1  0
  1 38  1  0
  3 39  1  0
  3 40  1  0
  3 41  1  0
  4 42  1  0
  5 43  1  0
  5 44  1  0
  6 45  1  1
  7 46  1  0
  7 47  1  0
  8 48  1  0
  8 49  1  0
 13 50  1  0
 14 51  1  0
 16 52  1  0
 19 53  1  0
 24 54  1  0
 27 55  1  0
 27 56  1  0
 27 57  1  0
 29 58  1  0
 30 59  1  0
 30 60  1  0
 30 61  1  0
 31 62  1  0
 31 63  1  0
 31 64  1  0
 33 65  1  0
 34 66  1  0
 35 67  1  0
 35 68  1  0
M  END
>  <meeko>  (1) 
{"is_sidechain": false}

>  <smiles>  (1) 
CC(C)=CC[C@H]1CCN(C(=O)c2ccc(Nc3ncc(F)c(-c4cnc(C)n4C(C)C)n3)cc2)C1

>  <vina_score>  (1) 
-9.357

>  <job_id>  (1) 
3f4ac12abedb50a2

$$$$
