
     RDKit          3D

 51 54  0  0  0  0  0  0  0  0999 V2000
   52.9290   75.3020   27.9270 C   0  0  0  0  0  0  0  0  0  0  0  0
   52.2820   75.7250   26.7870 C   0  0  0  0  0  0  0  0  0  0  0  0
   52.5350   76.8990   26.1710 N   0  0  0  0  0  0  0  0  0  0  0  0
   53.4730   77.7290   26.6970 C   0  0  0  0  0  0  0  0  0  0  0  0
   53.6890   78.9500   26.0390 N   0  0  0  0  0  0  0  0  0  0  0  0
   52.9160   80.0950   26.5700 C   0  0  0  0  0  0  0  0  0  0  0  0
   52.0390   80.7340   25.4780 C   0  0  0  0  0  0  0  0  0  0  0  0
   52.7820   81.1700   24.3290 O   0  0  0  0  0  0  0  0  0  0  0  0
   53.8690   80.2900   23.9940 C   0  0  0  0  0  0  0  0  0  0  0  0
   53.7150   78.8720   24.5680 C   0  0  0  0  0  0  0  0  0  0  0  0
   54.2100   77.3660   27.8520 C   0  0  0  0  0  0  0  0  0  0  0  0
   55.3060   78.1760   28.4190 C   0  0  0  0  0  0  0  0  0  0  0  0
   55.9790   79.1310   27.6450 C   0  0  0  0  0  0  0  0  0  0  0  0
   57.0260   79.8950   28.1780 C   0  0  0  0  0  0  0  0  0  0  0  0
   57.4390   79.7330   29.5060 C   0  0  0  0  0  0  0  0  0  0  0  0
   58.4810   80.4720   30.0980 N   0  0  0  0  0  0  0  0  0  0  0  0
   59.1640   79.8450   31.2360 C   0  0  0  0  0  0  0  0  0  0  0  0
   59.4260   80.8290   32.3740 C   0  0  0  0  0  0  0  0  0  0  0  0
   60.6810   81.6890   32.1330 C   0  0  0  0  0  0  0  0  0  0  0  0
   61.1870   81.7870   30.7690 N   0  0  0  0  0  0  0  0  0  0  0  0
   60.2260   82.2100   29.7460 C   0  0  0  0  0  0  0  0  0  0  0  0
   59.3530   81.1180   29.0950 C   0  0  0  0  0  0  0  0  0  0  0  0
   56.7690   78.7690   30.2760 C   0  0  0  0  0  0  0  0  0  0  0  0
   55.7250   78.0030   29.7460 C   0  0  0  0  0  0  0  0  0  0  0  0
   53.9050   76.1310   28.4580 C   0  0  0  0  0  0  0  0  0  0  0  0
   52.6800   74.3403   28.3994 H   0  0  0  0  0  0  0  0  0  0  0  0
   51.5142   75.0675   26.3532 H   0  0  0  0  0  0  0  0  0  0  0  0
   52.2699   79.7425   27.3875 H   0  0  0  0  0  0  0  0  0  0  0  0
   53.6252   80.8535   26.9330 H   0  0  0  0  0  0  0  0  0  0  0  0
   51.2951   79.9927   25.1508 H   0  0  0  0  0  0  0  0  0  0  0  0
   51.5720   81.6269   25.9193 H   0  0  0  0  0  0  0  0  0  0  0  0
   53.9312   80.2163   22.8982 H   0  0  0  0  0  0  0  0  0  0  0  0
   54.7792   80.7196   24.4379 H   0  0  0  0  0  0  0  0  0  0  0  0
   52.7764   78.4274   24.2056 H   0  0  0  0  0  0  0  0  0  0  0  0
   54.5596   78.2462   24.2440 H   0  0  0  0  0  0  0  0  0  0  0  0
   55.6793   79.2840   26.5977 H   0  0  0  0  0  0  0  0  0  0  0  0
   57.5326   80.6354   27.5415 H   0  0  0  0  0  0  0  0  0  0  0  0
   58.5369   79.0250   31.6158 H   0  0  0  0  0  0  0  0  0  0  0  0
   60.1379   79.4774   30.8806 H   0  0  0  0  0  0  0  0  0  0  0  0
   58.5558   81.4946   32.4722 H   0  0  0  0  0  0  0  0  0  0  0  0
   59.5929   80.2436   33.2902 H   0  0  0  0  0  0  0  0  0  0  0  0
   60.4489   82.7098   32.4709 H   0  0  0  0  0  0  0  0  0  0  0  0
   61.4795   81.1750   32.6881 H   0  0  0  0  0  0  0  0  0  0  0  0
   61.6090   80.8980   30.5040 H   0  0  0  0  0  0  0  0  0  0  0  0
   59.5477   82.9396   30.2125 H   0  0  0  0  0  0  0  0  0  0  0  0
   60.8445   82.6012   28.9248 H   0  0  0  0  0  0  0  0  0  0  0  0
   58.7269   81.5752   28.3146 H   0  0  0  0  0  0  0  0  0  0  0  0
   60.0133   80.3537   28.6593 H   0  0  0  0  0  0  0  0  0  0  0  0
   57.0723   78.6121   31.3217 H   0  0  0  0  0  0  0  0  0  0  0  0
   55.2259   77.2546   30.3791 H   0  0  0  0  0  0  0  0  0  0  0  0
   54.4478   75.8210   29.3632 H   0  0  0  0  0  0  0  0  0  0  0  0
  1  2  1  0
  2  3  2  0
  3  4  1  0
  4  5  1  0
  5  6  1  0
  6  7  1  0
  7  8  1  0
  8  9  1  0
  9 10  1  0
  4 11  2  0
 11 12  1  0
 12 13  1  0
 13 14  2  0
 14 15  1  0
 15 16  1  0
 16 17  1  0
 17 18  1  0
 18 19  1  0
 19 20  1  0
 20 21  1  0
 21 22  1  0
 15 23  2  0
 23 24  1  0
 11 25  1  0
 25  1  2  0
 10  5  1  0
 24 12  2  0
 22 16  1  0
  1 26  1  0
  2 27  1  0
  6 28  1  0
  6 29  1  0
  7 30  1  0
  7 31  1  0
  9 32  1  0
  9 33  1  0
 10 34  1  0
 10 35  1  0
 13 36  1  0
 14 37  1  0
 17 38  1  0
 17 39  1  0
 18 40  1  0
 18 41  1  0
 19 42  1  0
 19 43  1  0
 20 44  1  0
 21 45  1  0
 21 46  1  0
 22 47  1  0
 22 48  1  0
 23 49  1  0
 24 50  1  0
 25 51  1  0
M  END
>  <meeko>  (1) 
{"is_sidechain": false}

>  <smiles>  (1) 
c1cnc(N2CCOCC2)c(-c2ccc(N3CCCNCC3)cc2)c1

>  <vina_score>  (1) 
-6.068

>  <job_id>  (1) 
3f4e40ded957f8c3

$$$$
