
     RDKit          3D

 55 58  0  0  0  0  0  0  0  0999 V2000
   59.1340   80.5240   28.0790 O   0  0  0  0  0  0  0  0  0  0  0  0
   58.4660   80.2560   29.0750 C   0  0  0  0  0  0  0  0  0  0  0  0
   57.2330   79.4610   28.8900 C   0  0  0  0  0  0  0  0  0  0  0  0
   56.9800   78.3420   29.6810 C   0  0  0  0  0  0  0  0  0  0  0  0
   55.8120   77.6170   29.4740 C   0  0  0  0  0  0  0  0  0  0  0  0
   54.9150   78.0040   28.4700 C   0  0  0  0  0  0  0  0  0  0  0  0
   55.1650   79.1060   27.6360 C   0  0  0  0  0  0  0  0  0  0  0  0
   54.2900   79.5150   26.6140 N   0  0  0  0  0  0  0  0  0  0  0  0
   53.4420   80.6920   26.8730 C   0  0  0  0  0  0  0  0  0  0  0  0
   53.6010   81.7950   25.8190 C   0  0  0  0  0  0  0  0  0  0  0  0
   52.5410   81.7720   24.7120 C   0  0  0  0  0  0  0  0  0  0  0  0
   52.8190   80.8620   23.5020 C   0  0  0  0  0  0  0  0  0  0  0  0
   52.5060   79.4660   23.7890 N   0  0  0  0  0  0  0  0  0  0  0  0
   53.6550   78.6960   24.2960 C   0  0  0  0  0  0  0  0  0  0  0  0
   53.7250   78.4090   25.8120 C   0  0  0  0  0  0  0  0  0  0  0  0
   56.3450   79.8290   27.8720 C   0  0  0  0  0  0  0  0  0  0  0  0
   58.8160   80.6590   30.3590 N   0  0  0  0  0  0  0  0  0  0  0  0
   57.9080   80.6490   31.5140 C   0  0  0  0  0  0  0  0  0  0  0  0
   58.2150   81.7860   32.5060 C   0  0  0  0  0  0  0  0  0  0  0  0
   59.5940   81.7440   33.0090 N   0  0  0  0  0  0  0  0  0  0  0  0
   60.0570   82.8690   33.8360 C   0  0  0  0  0  0  0  0  0  0  0  0
   60.9560   82.6430   35.0220 C   0  0  0  0  0  0  0  0  0  0  0  0
   61.4650   83.3930   33.8240 C   0  0  0  0  0  0  0  0  0  0  0  0
   60.5770   81.3140   31.9960 C   0  0  0  0  0  0  0  0  0  0  0  0
   60.0760   81.3760   30.5430 C   0  0  0  0  0  0  0  0  0  0  0  0
   57.6951   78.0364   30.4590 H   0  0  0  0  0  0  0  0  0  0  0  0
   55.5920   76.7389   30.0990 H   0  0  0  0  0  0  0  0  0  0  0  0
   53.9881   77.4282   28.3308 H   0  0  0  0  0  0  0  0  0  0  0  0
   52.3905   80.3693   26.8855 H   0  0  0  0  0  0  0  0  0  0  0  0
   53.7559   81.1150   27.8387 H   0  0  0  0  0  0  0  0  0  0  0  0
   53.5449   82.7682   26.3286 H   0  0  0  0  0  0  0  0  0  0  0  0
   54.5703   81.6224   25.3285 H   0  0  0  0  0  0  0  0  0  0  0  0
   51.5942   81.4429   25.1650 H   0  0  0  0  0  0  0  0  0  0  0  0
   52.5277   82.7941   24.3057 H   0  0  0  0  0  0  0  0  0  0  0  0
   52.2027   81.1980   22.6551 H   0  0  0  0  0  0  0  0  0  0  0  0
   53.8907   80.9294   23.2633 H   0  0  0  0  0  0  0  0  0  0  0  0
   52.1700   79.0080   22.9430 H   0  0  0  0  0  0  0  0  0  0  0  0
   53.6512   77.7249   23.7793 H   0  0  0  0  0  0  0  0  0  0  0  0
   54.5250   79.3395   24.0984 H   0  0  0  0  0  0  0  0  0  0  0  0
   52.7053   78.2079   26.1722 H   0  0  0  0  0  0  0  0  0  0  0  0
   54.4000   77.5499   25.9396 H   0  0  0  0  0  0  0  0  0  0  0  0
   56.5766   80.7022   27.2445 H   0  0  0  0  0  0  0  0  0  0  0  0
   56.8751   80.7630   31.1534 H   0  0  0  0  0  0  0  0  0  0  0  0
   58.0449   79.6940   32.0425 H   0  0  0  0  0  0  0  0  0  0  0  0
   58.0551   82.7485   31.9981 H   0  0  0  0  0  0  0  0  0  0  0  0
   57.5434   81.6639   33.3686 H   0  0  0  0  0  0  0  0  0  0  0  0
   59.0721   83.3262   33.6602 H   0  0  0  0  0  0  0  0  0  0  0  0
   60.7668   83.1762   35.9653 H   0  0  0  0  0  0  0  0  0  0  0  0
   61.2907   81.7611   35.5879 H   0  0  0  0  0  0  0  0  0  0  0  0
   61.6492   84.4754   33.8907 H   0  0  0  0  0  0  0  0  0  0  0  0
   62.3278   83.2872   33.1499 H   0  0  0  0  0  0  0  0  0  0  0  0
   61.4615   81.9624   32.0808 H   0  0  0  0  0  0  0  0  0  0  0  0
   60.7927   80.2556   32.2040 H   0  0  0  0  0  0  0  0  0  0  0  0
   59.9270   82.4298   30.2650 H   0  0  0  0  0  0  0  0  0  0  0  0
   60.8327   80.8951   29.9057 H   0  0  0  0  0  0  0  0  0  0  0  0
  1  2  2  0
  2  3  1  0
  3  4  1  0
  4  5  2  0
  5  6  1  0
  6  7  2  0
  7  8  1  0
  8  9  1  0
  9 10  1  0
 10 11  1  0
 11 12  1  0
 12 13  1  0
 13 14  1  0
 14 15  1  0
  7 16  1  0
  2 17  1  0
 17 18  1  0
 18 19  1  0
 19 20  1  0
 20 21  1  0
 21 22  1  0
 22 23  1  0
 20 24  1  0
 24 25  1  0
 16  3  2  0
 25 17  1  0
 15  8  1  0
 23 21  1  0
  4 26  1  0
  5 27  1  0
  6 28  1  0
  9 29  1  0
  9 30  1  0
 10 31  1  0
 10 32  1  0
 11 33  1  0
 11 34  1  0
 12 35  1  0
 12 36  1  0
 13 37  1  0
 14 38  1  0
 14 39  1  0
 15 40  1  0
 15 41  1  0
 16 42  1  0
 18 43  1  0
 18 44  1  0
 19 45  1  0
 19 46  1  0
 21 47  1  0
 22 48  1  0
 22 49  1  0
 23 50  1  0
 23 51  1  0
 24 52  1  0
 24 53  1  0
 25 54  1  0
 25 55  1  0
M  END
>  <meeko>  (1) 
{"is_sidechain": false}

>  <smiles>  (1) 
O=C(c1cccc(N2CCCCNCC2)c1)N1CCN(C2CC2)CC1

>  <vina_score>  (1) 
-5.853

>  <job_id>  (1) 
3fae794ceff1fe5e

$$$$
