
     RDKit          3D

 38 39  0  0  0  0  0  0  0  0999 V2000
   55.1680   76.7070   29.8950 C   0  0  0  0  0  0  0  0  0  0  0  0
   54.5850   77.4280   28.7160 C   0  0  0  0  0  0  0  0  0  0  0  0
   53.4940   76.8900   28.0230 C   0  0  0  0  0  0  0  0  0  0  0  0
   52.9350   77.5750   26.9450 C   0  0  0  0  0  0  0  0  0  0  0  0
   53.4530   78.8110   26.5560 C   0  0  0  0  0  0  0  0  0  0  0  0
   54.5300   79.3750   27.2490 C   0  0  0  0  0  0  0  0  0  0  0  0
   55.1050   80.7040   26.8260 C   0  0  0  0  0  0  0  0  0  0  0  0
   56.6240   80.6350   26.6560 C   0  0  0  0  0  0  0  0  0  0  0  0
   57.3270   81.0360   27.8610 N   0  0  0  0  0  0  0  0  0  0  0  0
   58.2540   80.2190   28.4700 C   0  0  0  0  0  0  0  0  0  0  0  0
   58.5600   79.1180   28.0200 O   0  0  0  0  0  0  0  0  0  0  0  0
   58.8920   80.7130   29.7230 C   0  0  0  0  0  0  0  0  0  0  0  0
   59.9760   81.5990   29.6140 C   0  0  0  0  0  0  0  0  0  0  0  0
   60.6140   82.1060   30.7560 C   0  0  0  0  0  0  0  0  0  0  0  0
   61.7920   83.0260   30.6190 C   0  0  0  0  0  0  0  0  0  0  0  0
   60.1750   81.6960   32.0210 C   0  0  0  0  0  0  0  0  0  0  0  0
   59.1010   80.8150   32.1400 C   0  0  0  0  0  0  0  0  0  0  0  0
   58.4670   80.3320   30.9970 C   0  0  0  0  0  0  0  0  0  0  0  0
   57.4400   79.4820   31.1630 F   0  0  0  0  0  0  0  0  0  0  0  0
   55.0900   78.6760   28.3280 C   0  0  0  0  0  0  0  0  0  0  0  0
   54.7980   77.1646   30.8243 H   0  0  0  0  0  0  0  0  0  0  0  0
   54.8684   75.6491   29.8627 H   0  0  0  0  0  0  0  0  0  0  0  0
   56.2652   76.7785   29.8627 H   0  0  0  0  0  0  0  0  0  0  0  0
   53.0751   75.9206   28.3310 H   0  0  0  0  0  0  0  0  0  0  0  0
   52.0840   77.1403   26.4001 H   0  0  0  0  0  0  0  0  0  0  0  0
   53.0127   79.3444   25.7007 H   0  0  0  0  0  0  0  0  0  0  0  0
   54.6522   80.9997   25.8681 H   0  0  0  0  0  0  0  0  0  0  0  0
   54.8810   81.4403   27.6119 H   0  0  0  0  0  0  0  0  0  0  0  0
   56.9066   79.6013   26.4079 H   0  0  0  0  0  0  0  0  0  0  0  0
   56.9068   81.3300   25.8516 H   0  0  0  0  0  0  0  0  0  0  0  0
   57.0750   81.9180   28.2940 H   0  0  0  0  0  0  0  0  0  0  0  0
   60.3306   81.9003   28.6173 H   0  0  0  0  0  0  0  0  0  0  0  0
   62.1544   83.3090   31.6183 H   0  0  0  0  0  0  0  0  0  0  0  0
   62.5953   82.5138   30.0692 H   0  0  0  0  0  0  0  0  0  0  0  0
   61.4897   83.9295   30.0692 H   0  0  0  0  0  0  0  0  0  0  0  0
   60.6794   82.0704   32.9240 H   0  0  0  0  0  0  0  0  0  0  0  0
   58.7543   80.5013   33.1357 H   0  0  0  0  0  0  0  0  0  0  0  0
   55.9370   79.1133   28.8770 H   0  0  0  0  0  0  0  0  0  0  0  0
  1  2  1  0
  2  3  1  0
  3  4  2  0
  4  5  1  0
  5  6  2  0
  6  7  1  0
  7  8  1  0
  8  9  1  0
  9 10  1  0
 10 11  2  0
 10 12  1  0
 12 13  1  0
 13 14  2  0
 14 15  1  0
 14 16  1  0
 16 17  2  0
 17 18  1  0
 18 19  1  0
  6 20  1  0
 20  2  2  0
 18 12  2  0
  1 21  1  0
  1 22  1  0
  1 23  1  0
  3 24  1  0
  4 25  1  0
  5 26  1  0
  7 27  1  0
  7 28  1  0
  8 29  1  0
  8 30  1  0
  9 31  1  0
 13 32  1  0
 15 33  1  0
 15 34  1  0
 15 35  1  0
 16 36  1  0
 17 37  1  0
 20 38  1  0
M  END
>  <meeko>  (1) 
{"is_sidechain": false}

>  <smiles>  (1) 
Cc1cccc(CCNC(=O)c2cc(C)ccc2F)c1

>  <vina_score>  (1) 
-8.203

>  <job_id>  (1) 
400174454a40223c

$$$$
