
     RDKit          3D

 41 42  0  0  0  0  0  0  0  0999 V2000
   52.9010   81.6280   24.0020 C   0  0  0  0  0  0  0  0  0  0  0  0
   53.2840   80.4190   24.7750 C   0  0  0  0  0  0  0  0  0  0  0  0
   53.0600   79.1920   24.3490 N   0  0  0  0  0  0  0  0  0  0  0  0
   53.5660   78.3620   25.3040 C   0  0  0  0  0  0  0  0  0  0  0  0
   54.0900   79.0730   26.3620 C   0  0  0  0  0  0  0  0  0  0  0  0
   54.7120   78.5600   27.5720 C   0  0  0  0  0  0  0  0  0  0  0  0
   55.8950   79.1440   27.8680 N   0  0  0  0  0  0  0  0  0  0  0  0
   56.5310   78.6990   28.9650 C   0  0  0  0  0  0  0  0  0  0  0  0
   57.7260   79.3520   29.2230 N   0  0  0  0  0  0  0  0  0  0  0  0
   58.0820   79.9360   30.4040 C   0  0  0  0  0  0  0  0  0  0  0  0
   57.4360   79.8570   31.4460 O   0  0  0  0  0  0  0  0  0  0  0  0
   59.2950   80.6330   30.3560 N   0  0  0  0  0  0  0  0  0  0  0  0
   59.7720   81.2100   31.6030 C   0  0  0  0  0  0  0  0  0  0  0  0
   59.8530   81.2220   29.1450 C   0  0  0  0  0  0  0  0  0  0  0  0
   56.0510   77.7480   29.7760 N   0  0  0  0  0  0  0  0  0  0  0  0
   54.8760   77.1810   29.4360 C   0  0  0  0  0  0  0  0  0  0  0  0
   54.1590   77.5520   28.3320 C   0  0  0  0  0  0  0  0  0  0  0  0
   52.9910   76.9700   28.0320 F   0  0  0  0  0  0  0  0  0  0  0  0
   53.9350   80.4050   25.9980 N   0  0  0  0  0  0  0  0  0  0  0  0
   54.4310   81.5510   26.7620 C   0  0  0  0  0  0  0  0  0  0  0  0
   55.5550   82.3160   26.0620 C   0  0  0  0  0  0  0  0  0  0  0  0
   53.3100   82.4820   27.2220 C   0  0  0  0  0  0  0  0  0  0  0  0
   52.6434   82.4410   24.6967 H   0  0  0  0  0  0  0  0  0  0  0  0
   53.7442   81.9404   23.3684 H   0  0  0  0  0  0  0  0  0  0  0  0
   52.0317   81.3980   23.3684 H   0  0  0  0  0  0  0  0  0  0  0  0
   53.5573   77.2640   25.2388 H   0  0  0  0  0  0  0  0  0  0  0  0
   58.4470   79.1090   28.5690 H   0  0  0  0  0  0  0  0  0  0  0  0
   59.3257   80.6702   32.4512 H   0  0  0  0  0  0  0  0  0  0  0  0
   60.8677   81.1258   31.6505 H   0  0  0  0  0  0  0  0  0  0  0  0
   59.4833   82.2704   31.6505 H   0  0  0  0  0  0  0  0  0  0  0  0
   60.5859   81.9956   29.4176 H   0  0  0  0  0  0  0  0  0  0  0  0
   60.3491   80.4397   28.5518 H   0  0  0  0  0  0  0  0  0  0  0  0
   59.0451   81.6751   28.5518 H   0  0  0  0  0  0  0  0  0  0  0  0
   54.4750   76.3821   30.0770 H   0  0  0  0  0  0  0  0  0  0  0  0
   54.8807   81.1156   27.6665 H   0  0  0  0  0  0  0  0  0  0  0  0
   56.2169   82.7665   26.8162 H   0  0  0  0  0  0  0  0  0  0  0  0
   56.1336   81.6234   25.4331 H   0  0  0  0  0  0  0  0  0  0  0  0
   55.1229   83.1084   25.4331 H   0  0  0  0  0  0  0  0  0  0  0  0
   53.2812   82.5059   28.3214 H   0  0  0  0  0  0  0  0  0  0  0  0
   53.4948   83.4961   26.8379 H   0  0  0  0  0  0  0  0  0  0  0  0
   52.3471   82.1142   26.8379 H   0  0  0  0  0  0  0  0  0  0  0  0
  1  2  1  0
  2  3  2  0
  3  4  1  0
  4  5  2  0
  5  6  1  0
  6  7  2  0
  7  8  1  0
  8  9  1  0
  9 10  1  0
 10 11  2  0
 10 12  1  0
 12 13  1  0
 12 14  1  0
  8 15  2  0
 15 16  1  0
 16 17  2  0
 17 18  1  0
  5 19  1  0
 19 20  1  0
 20 21  1  0
 20 22  1  0
 19  2  1  0
 17  6  1  0
  1 23  1  0
  1 24  1  0
  1 25  1  0
  4 26  1  0
  9 27  1  0
 13 28  1  0
 13 29  1  0
 13 30  1  0
 14 31  1  0
 14 32  1  0
 14 33  1  0
 16 34  1  0
 20 35  1  0
 21 36  1  0
 21 37  1  0
 21 38  1  0
 22 39  1  0
 22 40  1  0
 22 41  1  0
M  END
>  <meeko>  (1) 
{"is_sidechain": false}

>  <smiles>  (1) 
Cc1ncc(-c2nc(NC(=O)N(C)C)ncc2F)n1C(C)C

>  <vina_score>  (1) 
-7.677

>  <job_id>  (1) 
4026b59ad913e20a

$$$$
