
     RDKit          3D

 46 48  0  0  0  0  0  0  0  0999 V2000
   52.9340   81.0010   22.8770 C   0  0  0  0  0  0  0  0  0  0  0  0
   52.8060   80.4660   24.2820 C   0  0  0  0  0  0  0  0  0  0  0  0
   51.8110   80.7100   24.9550 O   0  0  0  0  0  0  0  0  0  0  0  0
   53.9180   79.7390   24.6660 N   0  0  0  0  0  0  0  0  0  0  0  0
   54.1460   79.1050   25.9070 C   0  0  0  0  0  0  0  0  0  0  0  0
   53.3450   78.0880   26.4180 C   0  0  0  0  0  0  0  0  0  0  0  0
   53.6420   77.5300   27.6590 C   0  0  0  0  0  0  0  0  0  0  0  0
   54.7430   77.9830   28.3930 C   0  0  0  0  0  0  0  0  0  0  0  0
   55.5830   78.9970   27.9140 C   0  0  0  0  0  0  0  0  0  0  0  0
   56.6740   79.4510   28.6380 N   0  0  0  0  0  0  0  0  0  0  0  0
   57.4340   80.6440   28.2280 C   0  0  0  0  0  0  0  0  0  0  0  0
   58.8650   80.6500   28.8180 C   0  0  0  0  0  0  0  0  0  0  0  0
   58.8610   80.5350   30.2870 N   0  0  0  0  0  0  0  0  0  0  0  0
   59.8770   81.0820   31.0550 C   0  0  0  0  0  0  0  0  0  0  0  0
   60.0050   80.7920   32.4210 C   0  0  0  0  0  0  0  0  0  0  0  0
   61.0290   81.3380   33.2040 C   0  0  0  0  0  0  0  0  0  0  0  0
   61.9570   82.2020   32.6360 C   0  0  0  0  0  0  0  0  0  0  0  0
   61.8580   82.5330   31.2850 C   0  0  0  0  0  0  0  0  0  0  0  0
   62.8730   83.4330   30.6440 C   0  0  0  0  0  0  0  0  0  0  0  0
   60.8300   81.9630   30.5130 C   0  0  0  0  0  0  0  0  0  0  0  0
   57.6710   79.9180   30.8960 C   0  0  0  0  0  0  0  0  0  0  0  0
   57.0110   78.8810   29.9560 C   0  0  0  0  0  0  0  0  0  0  0  0
   55.2510   79.5430   26.6600 C   0  0  0  0  0  0  0  0  0  0  0  0
   53.1898   82.0702   22.9137 H   0  0  0  0  0  0  0  0  0  0  0  0
   53.7262   80.4524   22.3465 H   0  0  0  0  0  0  0  0  0  0  0  0
   51.9793   80.8704   22.3465 H   0  0  0  0  0  0  0  0  0  0  0  0
   54.6640   79.6560   23.9880 H   0  0  0  0  0  0  0  0  0  0  0  0
   52.4798   77.7259   25.8433 H   0  0  0  0  0  0  0  0  0  0  0  0
   53.0070   76.7284   28.0642 H   0  0  0  0  0  0  0  0  0  0  0  0
   54.9553   77.5309   29.3731 H   0  0  0  0  0  0  0  0  0  0  0  0
   57.5022   80.6619   27.1303 H   0  0  0  0  0  0  0  0  0  0  0  0
   56.9058   81.5309   28.6079 H   0  0  0  0  0  0  0  0  0  0  0  0
   59.4252   79.8018   28.3976 H   0  0  0  0  0  0  0  0  0  0  0  0
   59.3350   81.6092   28.5553 H   0  0  0  0  0  0  0  0  0  0  0  0
   59.2779   80.1142   32.8921 H   0  0  0  0  0  0  0  0  0  0  0  0
   61.0991   81.0823   34.2716 H   0  0  0  0  0  0  0  0  0  0  0  0
   62.7668   82.6234   33.2497 H   0  0  0  0  0  0  0  0  0  0  0  0
   63.4526   83.9469   31.4250 H   0  0  0  0  0  0  0  0  0  0  0  0
   63.5512   82.8340   30.0185 H   0  0  0  0  0  0  0  0  0  0  0  0
   62.3594   84.1780   30.0185 H   0  0  0  0  0  0  0  0  0  0  0  0
   60.7689   82.2159   29.4442 H   0  0  0  0  0  0  0  0  0  0  0  0
   57.9693   79.4141   31.8272 H   0  0  0  0  0  0  0  0  0  0  0  0
   56.9378   80.7143   31.0920 H   0  0  0  0  0  0  0  0  0  0  0  0
   57.7078   78.0424   29.8105 H   0  0  0  0  0  0  0  0  0  0  0  0
   56.0741   78.5495   30.4275 H   0  0  0  0  0  0  0  0  0  0  0  0
   55.8820   80.3460   26.2513 H   0  0  0  0  0  0  0  0  0  0  0  0
  1  2  1  0
  2  3  2  0
  2  4  1  0
  4  5  1  0
  5  6  1  0
  6  7  2  0
  7  8  1  0
  8  9  2  0
  9 10  1  0
 10 11  1  0
 11 12  1  0
 12 13  1  0
 13 14  1  0
 14 15  1  0
 15 16  2  0
 16 17  1  0
 17 18  2  0
 18 19  1  0
 18 20  1  0
 13 21  1  0
 21 22  1  0
  9 23  1  0
 23  5  2  0
 22 10  1  0
 20 14  2  0
  1 24  1  0
  1 25  1  0
  1 26  1  0
  4 27  1  0
  6 28  1  0
  7 29  1  0
  8 30  1  0
 11 31  1  0
 11 32  1  0
 12 33  1  0
 12 34  1  0
 15 35  1  0
 16 36  1  0
 17 37  1  0
 19 38  1  0
 19 39  1  0
 19 40  1  0
 20 41  1  0
 21 42  1  0
 21 43  1  0
 22 44  1  0
 22 45  1  0
 23 46  1  0
M  END
>  <meeko>  (1) 
{"is_sidechain": false}

>  <smiles>  (1) 
CC(=O)Nc1cccc(N2CCN(c3cccc(C)c3)CC2)c1

>  <vina_score>  (1) 
-7.360

>  <job_id>  (1) 
4035030aef5ae358

$$$$
