
     RDKit          3D

 54 56  0  0  0  0  0  0  0  0999 V2000
   66.4660   84.6810   30.5360 C   0  0  0  0  0  0  0  0  0  0  0  0
   64.9840   84.6120   30.2680 C   0  0  0  0  0  0  0  0  0  0  0  0
   64.5600   84.3570   29.1450 O   0  0  0  0  0  0  0  0  0  0  0  0
   64.2280   84.8090   31.4100 N   0  0  0  0  0  0  0  0  0  0  0  0
   62.8210   84.8500   31.4960 C   0  0  0  0  0  0  0  0  0  0  0  0
   62.1930   86.0720   31.2140 C   0  0  0  0  0  0  0  0  0  0  0  0
   60.8020   86.1960   31.2840 C   0  0  0  0  0  0  0  0  0  0  0  0
   60.0250   85.0980   31.6420 C   0  0  0  0  0  0  0  0  0  0  0  0
   60.6450   83.8800   31.9330 C   0  0  0  0  0  0  0  0  0  0  0  0
   59.7990   82.7110   32.2550 C   0  0  0  0  0  0  0  0  0  0  0  0
   59.3760   82.6250   33.4070 O   0  0  0  0  0  0  0  0  0  0  0  0
   59.5230   81.7690   31.2720 N   0  0  0  0  0  0  0  0  0  0  0  0
   58.5980   80.6800   31.6130 C   0  0  0  0  0  0  0  0  0  0  0  0
   58.6960   79.4820   30.6550 C   0  0  0  0  0  0  0  0  0  0  0  0
   58.5330   79.8880   29.2450 N   0  0  0  0  0  0  0  0  0  0  0  0
   57.3310   79.6450   28.5710 C   0  0  0  0  0  0  0  0  0  0  0  0
   56.4660   78.6380   29.0300 C   0  0  0  0  0  0  0  0  0  0  0  0
   55.2510   78.3560   28.3940 C   0  0  0  0  0  0  0  0  0  0  0  0
   54.8520   79.0760   27.2640 C   0  0  0  0  0  0  0  0  0  0  0  0
   53.5340   78.7570   26.5840 C   0  0  0  0  0  0  0  0  0  0  0  0
   53.6810   78.7200   25.0610 C   0  0  0  0  0  0  0  0  0  0  0  0
   52.9350   77.4490   27.1060 C   0  0  0  0  0  0  0  0  0  0  0  0
   55.7020   80.0850   26.7970 C   0  0  0  0  0  0  0  0  0  0  0  0
   56.9170   80.3620   27.4420 C   0  0  0  0  0  0  0  0  0  0  0  0
   59.1850   81.1710   28.8710 C   0  0  0  0  0  0  0  0  0  0  0  0
   60.1670   81.6670   29.9510 C   0  0  0  0  0  0  0  0  0  0  0  0
   62.0350   83.7460   31.8290 C   0  0  0  0  0  0  0  0  0  0  0  0
   66.6423   84.6892   31.6218 H   0  0  0  0  0  0  0  0  0  0  0  0
   66.9603   83.8049   30.0909 H   0  0  0  0  0  0  0  0  0  0  0  0
   66.8767   85.5992   30.0909 H   0  0  0  0  0  0  0  0  0  0  0  0
   64.7310   84.8550   32.2870 H   0  0  0  0  0  0  0  0  0  0  0  0
   62.8025   86.9439   30.9342 H   0  0  0  0  0  0  0  0  0  0  0  0
   60.3226   87.1596   31.0566 H   0  0  0  0  0  0  0  0  0  0  0  0
   58.9300   85.1885   31.6955 H   0  0  0  0  0  0  0  0  0  0  0  0
   58.8263   80.3331   32.6316 H   0  0  0  0  0  0  0  0  0  0  0  0
   57.5767   81.0807   31.5330 H   0  0  0  0  0  0  0  0  0  0  0  0
   59.6817   79.0092   30.7770 H   0  0  0  0  0  0  0  0  0  0  0  0
   57.8856   78.7808   30.9030 H   0  0  0  0  0  0  0  0  0  0  0  0
   56.7520   78.0529   29.9165 H   0  0  0  0  0  0  0  0  0  0  0  0
   54.6031   77.5590   28.7878 H   0  0  0  0  0  0  0  0  0  0  0  0
   52.8366   79.5700   26.8342 H   0  0  0  0  0  0  0  0  0  0  0  0
   54.7170   78.4592   24.7989 H   0  0  0  0  0  0  0  0  0  0  0  0
   52.9966   77.9661   24.6448 H   0  0  0  0  0  0  0  0  0  0  0  0
   53.4351   79.7081   24.6448 H   0  0  0  0  0  0  0  0  0  0  0  0
   52.9388   77.4572   28.2060 H   0  0  0  0  0  0  0  0  0  0  0  0
   51.9013   77.3488   26.7436 H   0  0  0  0  0  0  0  0  0  0  0  0
   53.5344   76.6009   26.7436 H   0  0  0  0  0  0  0  0  0  0  0  0
   55.4133   80.6696   25.9111 H   0  0  0  0  0  0  0  0  0  0  0  0
   57.5609   81.1633   27.0504 H   0  0  0  0  0  0  0  0  0  0  0  0
   59.7374   81.0258   27.9309 H   0  0  0  0  0  0  0  0  0  0  0  0
   58.3957   81.9292   28.7612 H   0  0  0  0  0  0  0  0  0  0  0  0
   61.0079   80.9611   30.0186 H   0  0  0  0  0  0  0  0  0  0  0  0
   60.5143   82.6699   29.6621 H   0  0  0  0  0  0  0  0  0  0  0  0
   62.5079   82.7695   32.0100 H   0  0  0  0  0  0  0  0  0  0  0  0
  1  2  1  0
  2  3  2  0
  2  4  1  0
  4  5  1  0
  5  6  2  0
  6  7  1  0
  7  8  2  0
  8  9  1  0
  9 10  1  0
 10 11  2  0
 10 12  1  0
 12 13  1  0
 13 14  1  0
 14 15  1  0
 15 16  1  0
 16 17  1  0
 17 18  2  0
 18 19  1  0
 19 20  1  0
 20 21  1  0
 20 22  1  0
 19 23  2  0
 23 24  1  0
 15 25  1  0
 25 26  1  0
  9 27  2  0
 27  5  1  0
 26 12  1  0
 24 16  2  0
  1 28  1  0
  1 29  1  0
  1 30  1  0
  4 31  1  0
  6 32  1  0
  7 33  1  0
  8 34  1  0
 13 35  1  0
 13 36  1  0
 14 37  1  0
 14 38  1  0
 17 39  1  0
 18 40  1  0
 20 41  1  0
 21 42  1  0
 21 43  1  0
 21 44  1  0
 22 45  1  0
 22 46  1  0
 22 47  1  0
 23 48  1  0
 24 49  1  0
 25 50  1  0
 25 51  1  0
 26 52  1  0
 26 53  1  0
 27 54  1  0
M  END
>  <meeko>  (1) 
{"is_sidechain": false}

>  <smiles>  (1) 
CC(=O)Nc1cccc(C(=O)N2CCN(c3ccc(C(C)C)cc3)CC2)c1

>  <vina_score>  (1) 
-8.060

>  <job_id>  (1) 
41501177f66a0244

$$$$
