
     RDKit          3D

 55 57  0  0  0  0  0  0  0  0999 V2000
   57.9610   78.7620   28.2320 C   0  0  0  0  0  0  0  0  0  0  0  0
   56.9830   78.7040   29.3140 N   0  0  0  0  0  0  0  0  0  0  0  0
   57.3080   79.4600   30.5280 C   0  0  0  0  0  0  0  0  0  0  0  0
   58.7640   79.8740   30.6810 C   0  0  0  0  0  0  0  0  0  0  0  0
   59.1350   80.8320   32.1220 S   0  0  0  0  0  0  0  0  0  0  0  0
   60.4220   80.3040   32.7810 N   0  0  0  0  0  0  0  0  0  0  0  0
   57.8900   80.9950   32.8480 O   0  0  0  0  0  0  0  0  0  0  0  0
   59.5920   82.4750   31.4740 C   0  0  0  0  0  0  0  0  0  0  0  0
   60.1890   82.4660   30.0940 C   0  0  0  0  0  0  0  0  0  0  0  0
   58.7690   82.9270   30.2980 C   0  0  0  0  0  0  0  0  0  0  0  0
   55.9350   77.7710   29.3840 C   0  0  0  0  0  0  0  0  0  0  0  0
   55.9340   76.8800   30.2370 O   0  0  0  0  0  0  0  0  0  0  0  0
   54.7670   77.8280   28.4450 C   0  0  0  0  0  0  0  0  0  0  0  0
   54.4620   79.0430   27.8630 C   0  0  0  0  0  0  0  0  0  0  0  0
   53.3610   79.0580   27.0380 C   0  0  0  0  0  0  0  0  0  0  0  0
   52.9050   80.3220   26.3210 C   0  0  0  0  0  0  0  0  0  0  0  0
   53.7340   81.5340   26.7780 C   0  0  0  0  0  0  0  0  0  0  0  0
   53.0550   82.9020   26.6810 C   0  0  0  0  0  0  0  0  0  0  0  0
   53.0010   83.5050   25.2800 C   0  0  0  0  0  0  0  0  0  0  0  0
   52.4800   82.5730   24.1520 C   0  0  0  0  0  0  0  0  0  0  0  0
   53.2780   81.2910   23.9270 C   0  0  0  0  0  0  0  0  0  0  0  0
   52.8660   80.1040   24.8000 C   0  0  0  0  0  0  0  0  0  0  0  0
   52.6240   77.9470   26.8270 N   0  0  0  0  0  0  0  0  0  0  0  0
   52.9790   76.8300   27.4650 C   0  0  0  0  0  0  0  0  0  0  0  0
   52.2130   75.7060   27.2440 N   0  0  0  0  0  0  0  0  0  0  0  0
   54.0360   76.7100   28.2610 N   0  0  0  0  0  0  0  0  0  0  0  0
   58.9741   78.8221   28.6563 H   0  0  0  0  0  0  0  0  0  0  0  0
   57.8761   77.8572   27.6121 H   0  0  0  0  0  0  0  0  0  0  0  0
   57.7698   79.6504   27.6121 H   0  0  0  0  0  0  0  0  0  0  0  0
   56.6954   80.3736   30.5306 H   0  0  0  0  0  0  0  0  0  0  0  0
   57.1013   78.7799   31.3675 H   0  0  0  0  0  0  0  0  0  0  0  0
   59.3747   78.9597   30.7151 H   0  0  0  0  0  0  0  0  0  0  0  0
   58.9859   80.5229   29.8210 H   0  0  0  0  0  0  0  0  0  0  0  0
   60.6220   80.8310   33.6340 H   0  0  0  0  0  0  0  0  0  0  0  0
   59.8802   82.9115   32.4417 H   0  0  0  0  0  0  0  0  0  0  0  0
   60.9705   83.1930   29.8280 H   0  0  0  0  0  0  0  0  0  0  0  0
   60.6782   81.7094   29.4630 H   0  0  0  0  0  0  0  0  0  0  0  0
   58.5136   83.9906   30.1814 H   0  0  0  0  0  0  0  0  0  0  0  0
   57.7917   82.6467   29.8781 H   0  0  0  0  0  0  0  0  0  0  0  0
   55.0637   79.9451   28.0481 H   0  0  0  0  0  0  0  0  0  0  0  0
   51.8681   80.5562   26.6037 H   0  0  0  0  0  0  0  0  0  0  0  0
   54.0104   81.3721   27.8303 H   0  0  0  0  0  0  0  0  0  0  0  0
   54.5859   81.5822   26.0838 H   0  0  0  0  0  0  0  0  0  0  0  0
   52.0225   82.7956   27.0453 H   0  0  0  0  0  0  0  0  0  0  0  0
   53.6665   83.5888   27.2846 H   0  0  0  0  0  0  0  0  0  0  0  0
   52.3427   84.3854   25.3187 H   0  0  0  0  0  0  0  0  0  0  0  0
   54.0447   83.7312   25.0164 H   0  0  0  0  0  0  0  0  0  0  0  0
   51.4469   82.2882   24.4000 H   0  0  0  0  0  0  0  0  0  0  0  0
   52.5739   83.1504   23.2205 H   0  0  0  0  0  0  0  0  0  0  0  0
   53.1583   80.9964   22.8740 H   0  0  0  0  0  0  0  0  0  0  0  0
   54.3165   81.5262   24.2029 H   0  0  0  0  0  0  0  0  0  0  0  0
   51.8355   79.8317   24.5282 H   0  0  0  0  0  0  0  0  0  0  0  0
   53.6144   79.3231   24.5997 H   0  0  0  0  0  0  0  0  0  0  0  0
   51.3040   75.7930   27.6700 H   0  0  0  0  0  0  0  0  0  0  0  0
   52.7500   74.8720   27.4350 H   0  0  0  0  0  0  0  0  0  0  0  0
  1  2  1  0
  2  3  1  0
  3  4  1  0
  4  5  1  0
  5  6  2  0
  5  7  2  0
  5  8  1  0
  8  9  1  0
  9 10  1  0
  2 11  1  0
 11 12  2  0
 11 13  1  0
 13 14  2  0
 14 15  1  0
 15 16  1  0
 16 17  1  0
 17 18  1  0
 18 19  1  0
 19 20  1  0
 20 21  1  0
 21 22  1  0
 15 23  2  0
 23 24  1  0
 24 25  1  0
 24 26  2  0
 10  8  1  0
 26 13  1  0
 22 16  1  0
  1 27  1  0
  1 28  1  0
  1 29  1  0
  3 30  1  0
  3 31  1  0
  4 32  1  0
  4 33  1  0
  6 34  1  0
  8 35  1  0
  9 36  1  0
  9 37  1  0
 10 38  1  0
 10 39  1  0
 14 40  1  0
 16 41  1  0
 17 42  1  0
 17 43  1  0
 18 44  1  0
 18 45  1  0
 19 46  1  0
 19 47  1  0
 20 48  1  0
 20 49  1  0
 21 50  1  0
 21 51  1  0
 22 52  1  0
 22 53  1  0
 25 54  1  0
 25 55  1  0
M  END
>  <meeko>  (1) 
{"is_sidechain": false}

>  <smiles>  (1) 
CN(CCS(=N)(=O)C1CC1)C(=O)c1cc(C2CCCCCC2)nc(N)n1

>  <vina_score>  (1) 
-6.029

>  <job_id>  (1) 
4184341139d2bc49

$$$$
