
     RDKit          3D

 57 61  0  0  0  0  0  0  0  0999 V2000
   52.5280   76.9240   27.6460 C   0  0  0  0  0  0  0  0  0  0  0  0
   53.8720   77.3590   28.1460 C   0  0  0  0  0  0  0  0  0  0  0  0
   54.5740   78.3600   27.4780 C   0  0  0  0  0  0  0  0  0  0  0  0
   55.8260   78.7540   27.9590 C   0  0  0  0  0  0  0  0  0  0  0  0
   56.5970   79.8500   27.2720 C   0  0  0  0  0  0  0  0  0  0  0  0
   57.6700   80.3250   28.1020 N   0  0  0  0  0  0  0  0  0  0  0  0
   57.8040   81.6450   28.4700 C   0  0  0  0  0  0  0  0  0  0  0  0
   57.1110   82.5530   28.0210 O   0  0  0  0  0  0  0  0  0  0  0  0
   58.8620   81.8550   29.4730 C   0  0  0  0  0  0  0  0  0  0  0  0
   60.0180   82.4840   29.1590 N   0  0  0  0  0  0  0  0  0  0  0  0
   60.7420   82.4550   30.3030 N   0  0  0  0  0  0  0  0  0  0  0  0
   62.0640   83.0350   30.3130 C   0  0  0  0  0  0  0  0  0  0  0  0
   60.0850   81.8570   31.3370 C   0  0  0  0  0  0  0  0  0  0  0  0
   58.8650   81.4530   30.8300 C   0  0  0  0  0  0  0  0  0  0  0  0
   57.8780   80.7070   31.6600 C   0  0  0  0  0  0  0  0  0  0  0  0
   58.0870   80.9820   33.1720 C   0  0  0  0  0  0  0  0  0  0  0  0
   59.5280   81.1570   33.5880 C   0  0  0  0  0  0  0  0  0  0  0  0
   59.9770   80.9600   34.8670 C   0  0  0  0  0  0  0  0  0  0  0  0
   61.2530   81.1820   35.2420 N   0  0  0  0  0  0  0  0  0  0  0  0
   62.1070   81.6260   34.3070 C   0  0  0  0  0  0  0  0  0  0  0  0
   63.4350   81.8620   34.6300 N   0  0  0  0  0  0  0  0  0  0  0  0
   63.8800   83.2170   34.3720 C   0  0  0  0  0  0  0  0  0  0  0  0
   64.6170   83.2630   33.0600 C   0  0  0  0  0  0  0  0  0  0  0  0
   65.1450   82.1070   32.4740 C   0  0  0  0  0  0  0  0  0  0  0  0
   65.8320   82.1940   31.2670 C   0  0  0  0  0  0  0  0  0  0  0  0
   65.9730   83.4420   30.6830 C   0  0  0  0  0  0  0  0  0  0  0  0
   65.4840   84.5810   31.2180 N   0  0  0  0  0  0  0  0  0  0  0  0
   64.8220   84.4660   32.3920 C   0  0  0  0  0  0  0  0  0  0  0  0
   61.7700   81.8780   33.0380 N   0  0  0  0  0  0  0  0  0  0  0  0
   60.4910   81.6340   32.7110 C   0  0  0  0  0  0  0  0  0  0  0  0
   56.3200   78.1390   29.1100 C   0  0  0  0  0  0  0  0  0  0  0  0
   55.5570   77.1530   29.7110 C   0  0  0  0  0  0  0  0  0  0  0  0
   54.3510   76.7490   29.2540 N   0  0  0  0  0  0  0  0  0  0  0  0
   51.8699   76.7110   28.5013 H   0  0  0  0  0  0  0  0  0  0  0  0
   52.0872   77.7253   27.0348 H   0  0  0  0  0  0  0  0  0  0  0  0
   52.6403   76.0163   27.0348 H   0  0  0  0  0  0  0  0  0  0  0  0
   54.1478   78.8350   26.5821 H   0  0  0  0  0  0  0  0  0  0  0  0
   57.0150   79.4606   26.3320 H   0  0  0  0  0  0  0  0  0  0  0  0
   55.9121   80.6873   27.0724 H   0  0  0  0  0  0  0  0  0  0  0  0
   58.2310   79.6730   28.6450 H   0  0  0  0  0  0  0  0  0  0  0  0
   62.3932   83.1794   31.3526 H   0  0  0  0  0  0  0  0  0  0  0  0
   62.7639   82.3613   29.7970 H   0  0  0  0  0  0  0  0  0  0  0  0
   62.0422   84.0062   29.7970 H   0  0  0  0  0  0  0  0  0  0  0  0
   56.8625   81.0204   31.3763 H   0  0  0  0  0  0  0  0  0  0  0  0
   58.0188   79.6308   31.4813 H   0  0  0  0  0  0  0  0  0  0  0  0
   57.5413   81.9011   33.4318 H   0  0  0  0  0  0  0  0  0  0  0  0
   57.7158   80.0935   33.7037 H   0  0  0  0  0  0  0  0  0  0  0  0
   59.2628   80.6038   35.6240 H   0  0  0  0  0  0  0  0  0  0  0  0
   63.9800   81.1350   34.1820 H   0  0  0  0  0  0  0  0  0  0  0  0
   63.0084   83.8866   34.3264 H   0  0  0  0  0  0  0  0  0  0  0  0
   64.5510   83.5423   35.1806 H   0  0  0  0  0  0  0  0  0  0  0  0
   65.0172   81.1317   32.9664 H   0  0  0  0  0  0  0  0  0  0  0  0
   66.2516   81.2962   30.7897 H   0  0  0  0  0  0  0  0  0  0  0  0
   66.5148   83.5090   29.7280 H   0  0  0  0  0  0  0  0  0  0  0  0
   64.4198   85.3827   32.8479 H   0  0  0  0  0  0  0  0  0  0  0  0
   57.2937   78.4312   29.5301 H   0  0  0  0  0  0  0  0  0  0  0  0
   55.9561   76.6692   30.6147 H   0  0  0  0  0  0  0  0  0  0  0  0
  1  2  1  0
  2  3  2  0
  3  4  1  0
  4  5  1  0
  5  6  1  0
  6  7  1  0
  7  8  2  0
  7  9  1  0
  9 10  2  0
 10 11  1  0
 11 12  1  0
 11 13  1  0
 13 14  2  0
 14 15  1  0
 15 16  1  0
 16 17  1  0
 17 18  2  0
 18 19  1  0
 19 20  2  0
 20 21  1  0
 21 22  1  0
 22 23  1  0
 23 24  1  0
 24 25  2  0
 25 26  1  0
 26 27  2  0
 27 28  1  0
 20 29  1  0
 29 30  2  0
  4 31  2  0
 31 32  1  0
 32 33  2  0
 33  2  1  0
 14  9  1  0
 30 17  1  0
 30 13  1  0
 28 23  2  0
  1 34  1  0
  1 35  1  0
  1 36  1  0
  3 37  1  0
  5 38  1  0
  5 39  1  0
  6 40  1  0
 12 41  1  0
 12 42  1  0
 12 43  1  0
 15 44  1  0
 15 45  1  0
 16 46  1  0
 16 47  1  0
 18 48  1  0
 21 49  1  0
 22 50  1  0
 22 51  1  0
 24 52  1  0
 25 53  1  0
 26 54  1  0
 28 55  1  0
 31 56  1  0
 32 57  1  0
M  END
>  <meeko>  (1) 
{"is_sidechain": false}

>  <smiles>  (1) 
Cc1cc(CNC(=O)c2nn(C)c3c2CCc2cnc(NCc4cccnc4)nc2-3)ccn1

>  <vina_score>  (1) 
-7.845

>  <job_id>  (1) 
419683b718d2e48d

$$$$
