
     RDKit          3D

 70 75  0  0  0  0  0  0  0  0999 V2000
   52.9320   81.7150   21.9790 C   0  0  0  0  0  0  0  0  0  0  0  0
   52.0390   80.8550   22.8840 C   0  0  0  0  0  0  0  0  0  0  0  0
   50.5750   81.1760   22.5490 C   0  0  0  0  0  0  0  0  0  0  0  0
   52.3490   81.0650   24.3970 C   0  0  0  0  0  0  0  0  0  0  0  0
   52.9200   79.8010   25.0760 C   0  0  0  0  0  0  0  0  0  0  0  0
   54.4350   79.8610   25.2850 C   0  0  0  0  0  0  0  0  0  0  0  0
   54.7900   81.0140   26.1130 N   0  0  0  0  0  0  0  0  0  0  0  0
   55.9330   81.0200   26.8950 C   0  0  0  0  0  0  0  0  0  0  0  0
   56.6190   79.8540   27.2390 C   0  0  0  0  0  0  0  0  0  0  0  0
   57.7740   79.8980   28.0300 C   0  0  0  0  0  0  0  0  0  0  0  0
   58.2590   81.1180   28.4900 C   0  0  0  0  0  0  0  0  0  0  0  0
   59.4170   81.1070   29.2830 N   0  0  0  0  0  0  0  0  0  0  0  0
   59.4720   81.2120   30.6740 C   0  0  0  0  0  0  0  0  0  0  0  0
   58.4150   80.8520   31.4280 N   0  0  0  0  0  0  0  0  0  0  0  0
   58.4800   80.9800   32.7690 C   0  0  0  0  0  0  0  0  0  0  0  0
   59.6200   81.5170   33.3510 C   0  0  0  0  0  0  0  0  0  0  0  0
   60.0710   81.7780   34.6660 C   0  0  0  0  0  0  0  0  0  0  0  0
   61.3490   82.3010   34.5800 C   0  0  0  0  0  0  0  0  0  0  0  0
   61.6560   82.4230   33.2320 N   0  0  0  0  0  0  0  0  0  0  0  0
   60.6300   81.8980   32.4820 C   0  0  0  0  0  0  0  0  0  0  0  0
   60.6040   81.7650   31.1470 N   0  0  0  0  0  0  0  0  0  0  0  0
   62.9680   82.9320   32.7690 C   0  0  0  0  0  0  0  0  0  0  0  0
   63.8930   81.7230   32.4710 C   0  0  0  0  0  0  0  0  0  0  0  0
   65.2420   82.1160   31.8670 C   0  0  0  0  0  0  0  0  0  0  0  0
   65.0850   83.0160   30.6460 C   0  0  0  0  0  0  0  0  0  0  0  0
   64.2200   84.2380   30.9410 C   0  0  0  0  0  0  0  0  0  0  0  0
   62.8580   83.8300   31.5050 C   0  0  0  0  0  0  0  0  0  0  0  0
   63.5450   83.8110   33.9220 C   0  0  0  0  0  0  0  0  0  0  0  0
   63.4330   83.2080   35.2340 N   0  0  0  0  0  0  0  0  0  0  0  0
   62.2500   82.6500   35.6480 C   0  0  0  0  0  0  0  0  0  0  0  0
   62.0270   82.4740   36.8400 O   0  0  0  0  0  0  0  0  0  0  0  0
   57.6210   82.2610   28.1880 N   0  0  0  0  0  0  0  0  0  0  0  0
   56.5040   82.1850   27.4160 C   0  0  0  0  0  0  0  0  0  0  0  0
   53.9590   82.2170   26.0060 C   0  0  0  0  0  0  0  0  0  0  0  0
   53.2770   82.2720   24.6400 C   0  0  0  0  0  0  0  0  0  0  0  0
   53.5858   82.3446   22.6005 H   0  0  0  0  0  0  0  0  0  0  0  0
   53.5481   81.0614   21.3440 H   0  0  0  0  0  0  0  0  0  0  0  0
   52.3021   82.3553   21.3440 H   0  0  0  0  0  0  0  0  0  0  0  0
   52.2421   79.7911   22.6922 H   0  0  0  0  0  0  0  0  0  0  0  0
   50.0045   81.3011   23.4811 H   0  0  0  0  0  0  0  0  0  0  0  0
   50.5283   82.1057   21.9630 H   0  0  0  0  0  0  0  0  0  0  0  0
   50.1436   80.3511   21.9630 H   0  0  0  0  0  0  0  0  0  0  0  0
   51.3775   81.2792   24.8664 H   0  0  0  0  0  0  0  0  0  0  0  0
   52.4362   79.6822   26.0567 H   0  0  0  0  0  0  0  0  0  0  0  0
   52.7155   78.9508   24.4087 H   0  0  0  0  0  0  0  0  0  0  0  0
   54.7688   78.9395   25.7844 H   0  0  0  0  0  0  0  0  0  0  0  0
   54.9268   79.9596   24.3060 H   0  0  0  0  0  0  0  0  0  0  0  0
   56.2456   78.8827   26.8823 H   0  0  0  0  0  0  0  0  0  0  0  0
   58.2986   78.9662   28.2880 H   0  0  0  0  0  0  0  0  0  0  0  0
   60.0330   80.3490   29.0280 H   0  0  0  0  0  0  0  0  0  0  0  0
   57.6353   80.6610   33.3973 H   0  0  0  0  0  0  0  0  0  0  0  0
   59.5061   81.5973   35.5924 H   0  0  0  0  0  0  0  0  0  0  0  0
   64.0774   81.1861   33.4132 H   0  0  0  0  0  0  0  0  0  0  0  0
   63.3769   81.0988   31.7267 H   0  0  0  0  0  0  0  0  0  0  0  0
   65.8289   82.6507   32.6283 H   0  0  0  0  0  0  0  0  0  0  0  0
   65.7496   81.1948   31.5450 H   0  0  0  0  0  0  0  0  0  0  0  0
   66.0809   83.3555   30.3252 H   0  0  0  0  0  0  0  0  0  0  0  0
   64.5888   82.4324   29.8566 H   0  0  0  0  0  0  0  0  0  0  0  0
   64.7362   84.8739   31.6752 H   0  0  0  0  0  0  0  0  0  0  0  0
   64.0574   84.7843   30.0002 H   0  0  0  0  0  0  0  0  0  0  0  0
   62.3011   84.7410   31.7696 H   0  0  0  0  0  0  0  0  0  0  0  0
   62.3428   83.2444   30.7293 H   0  0  0  0  0  0  0  0  0  0  0  0
   64.6095   83.9965   33.7162 H   0  0  0  0  0  0  0  0  0  0  0  0
   62.9509   84.7365   33.9450 H   0  0  0  0  0  0  0  0  0  0  0  0
   63.9880   83.5660   36.0010 H   0  0  0  0  0  0  0  0  0  0  0  0
   56.0002   83.1334   27.1781 H   0  0  0  0  0  0  0  0  0  0  0  0
   53.1917   82.1990   26.7940 H   0  0  0  0  0  0  0  0  0  0  0  0
   54.5985   83.1045   26.1221 H   0  0  0  0  0  0  0  0  0  0  0  0
   52.6802   83.1941   24.5801 H   0  0  0  0  0  0  0  0  0  0  0  0
   54.0636   82.2502   23.8714 H   0  0  0  0  0  0  0  0  0  0  0  0
  1  2  1  0
  2  3  1  0
  2  4  1  0
  4  5  1  0
  5  6  1  0
  6  7  1  0
  7  8  1  0
  8  9  2  0
  9 10  1  0
 10 11  2  0
 11 12  1  0
 12 13  1  0
 13 14  2  0
 14 15  1  0
 15 16  2  0
 16 17  1  0
 17 18  2  0
 18 19  1  0
 19 20  1  0
 20 21  2  0
 19 22  1  0
 22 23  1  0
 23 24  1  0
 24 25  1  0
 25 26  1  0
 26 27  1  0
 22 28  1  0
 28 29  1  0
 29 30  1  0
 30 31  2  0
 11 32  1  0
 32 33  2  0
  7 34  1  0
 34 35  1  0
 35  4  1  0
 33  8  1  0
 21 13  1  0
 27 22  1  0
 20 16  1  0
 30 18  1  0
  1 36  1  0
  1 37  1  0
  1 38  1  0
  2 39  1  0
  3 40  1  0
  3 41  1  0
  3 42  1  0
  4 43  1  0
  5 44  1  0
  5 45  1  0
  6 46  1  0
  6 47  1  0
  9 48  1  0
 10 49  1  0
 12 50  1  0
 15 51  1  0
 17 52  1  0
 23 53  1  0
 23 54  1  0
 24 55  1  0
 24 56  1  0
 25 57  1  0
 25 58  1  0
 26 59  1  0
 26 60  1  0
 27 61  1  0
 27 62  1  0
 28 63  1  0
 28 64  1  0
 29 65  1  0
 33 66  1  0
 34 67  1  0
 34 68  1  0
 35 69  1  0
 35 70  1  0
M  END
>  <meeko>  (1) 
{"is_sidechain": false}

>  <smiles>  (1) 
CC(C)C1CCN(c2ccc(Nc3ncc4cc5n(c4n3)C3(CCCCC3)CNC5=O)nc2)CC1

>  <vina_score>  (1) 
-8.238

>  <job_id>  (1) 
42221907d01143ac

$$$$
