
     RDKit          3D

 59 64  0  0  0  0  0  0  0  0999 V2000
   57.6980   79.9570   31.3700 O   0  0  0  0  0  0  0  0  0  0  0  0
   58.3400   79.9850   30.3170 C   0  0  0  0  0  0  0  0  0  0  0  0
   59.6850   80.6970   30.2000 C   0  0  0  0  0  0  0  0  0  0  0  0
   59.5940   82.1590   30.4890 C   0  0  0  0  0  0  0  0  0  0  0  0
   58.4370   82.8870   30.3490 N   0  0  0  0  0  0  0  0  0  0  0  0
   58.5530   84.1930   30.6570 N   0  0  0  0  0  0  0  0  0  0  0  0
   59.8350   84.3480   31.0200 C   0  0  0  0  0  0  0  0  0  0  0  0
   60.5220   85.5020   31.4280 C   0  0  0  0  0  0  0  0  0  0  0  0
   61.8840   85.2760   31.7430 C   0  0  0  0  0  0  0  0  0  0  0  0
   62.5120   83.9890   31.6850 C   0  0  0  0  0  0  0  0  0  0  0  0
   63.9090   83.8390   31.9830 N   0  0  0  0  0  0  0  0  0  0  0  0
   64.6310   84.8330   32.7970 C   0  0  0  0  0  0  0  0  0  0  0  0
   66.0600   84.2940   32.8500 C   0  0  0  0  0  0  0  0  0  0  0  0
   66.4240   83.9160   31.4210 C   0  0  0  0  0  0  0  0  0  0  0  0
   64.9060   83.3250   30.6820 S   0  0  0  0  0  0  0  0  0  0  0  0
   64.8960   81.8790   30.6450 O   0  0  0  0  0  0  0  0  0  0  0  0
   64.6270   84.1400   29.5200 O   0  0  0  0  0  0  0  0  0  0  0  0
   61.8410   82.8240   31.2510 C   0  0  0  0  0  0  0  0  0  0  0  0
   60.5080   83.0770   30.9400 C   0  0  0  0  0  0  0  0  0  0  0  0
   57.9410   79.3580   29.1480 N   0  0  0  0  0  0  0  0  0  0  0  0
   56.7620   78.6370   29.0700 C   0  0  0  0  0  0  0  0  0  0  0  0
   56.4410   77.5870   29.8950 N   0  0  0  0  0  0  0  0  0  0  0  0
   55.2410   77.0220   29.6500 N   0  0  0  0  0  0  0  0  0  0  0  0
   54.7350   77.7330   28.6300 C   0  0  0  0  0  0  0  0  0  0  0  0
   53.5010   77.6050   27.9730 C   0  0  0  0  0  0  0  0  0  0  0  0
   53.3100   78.5380   26.9270 C   0  0  0  0  0  0  0  0  0  0  0  0
   54.2890   79.5100   26.5400 C   0  0  0  0  0  0  0  0  0  0  0  0
   54.0040   80.4500   25.4960 N   0  0  0  0  0  0  0  0  0  0  0  0
   52.9360   80.1660   24.5050 C   0  0  0  0  0  0  0  0  0  0  0  0
   52.0260   81.3940   24.4460 C   0  0  0  0  0  0  0  0  0  0  0  0
   52.9250   82.6030   24.6450 C   0  0  0  0  0  0  0  0  0  0  0  0
   54.0020   82.1040   25.9710 S   0  0  0  0  0  0  0  0  0  0  0  0
   53.2750   82.2470   27.2130 O   0  0  0  0  0  0  0  0  0  0  0  0
   55.3260   82.6450   25.7700 O   0  0  0  0  0  0  0  0  0  0  0  0
   55.5210   79.6800   27.2080 C   0  0  0  0  0  0  0  0  0  0  0  0
   55.6800   78.7520   28.2360 C   0  0  0  0  0  0  0  0  0  0  0  0
   60.3871   80.2409   30.9135 H   0  0  0  0  0  0  0  0  0  0  0  0
   60.0286   80.5860   29.1610 H   0  0  0  0  0  0  0  0  0  0  0  0
   57.5330   82.5430   30.0290 H   0  0  0  0  0  0  0  0  0  0  0  0
   60.0460   86.4913   31.4968 H   0  0  0  0  0  0  0  0  0  0  0  0
   62.4950   86.1377   32.0498 H   0  0  0  0  0  0  0  0  0  0  0  0
   64.6036   85.8240   32.3203 H   0  0  0  0  0  0  0  0  0  0  0  0
   64.1896   84.9657   33.7958 H   0  0  0  0  0  0  0  0  0  0  0  0
   66.7457   85.0674   33.2264 H   0  0  0  0  0  0  0  0  0  0  0  0
   66.1378   83.4295   33.5257 H   0  0  0  0  0  0  0  0  0  0  0  0
   66.8011   84.7935   30.8753 H   0  0  0  0  0  0  0  0  0  0  0  0
   67.2169   83.1542   31.3896 H   0  0  0  0  0  0  0  0  0  0  0  0
   62.3153   81.8349   31.1687 H   0  0  0  0  0  0  0  0  0  0  0  0
   58.5000   79.4390   28.3060 H   0  0  0  0  0  0  0  0  0  0  0  0
   57.0170   77.2180   30.6480 H   0  0  0  0  0  0  0  0  0  0  0  0
   52.7510   76.8482   28.2466 H   0  0  0  0  0  0  0  0  0  0  0  0
   52.3560   78.5161   26.3798 H   0  0  0  0  0  0  0  0  0  0  0  0
   53.3808   79.9802   23.5162 H   0  0  0  0  0  0  0  0  0  0  0  0
   52.3637   79.2731   24.7970 H   0  0  0  0  0  0  0  0  0  0  0  0
   51.5244   81.4494   23.4686 H   0  0  0  0  0  0  0  0  0  0  0  0
   51.2427   81.3478   25.2169 H   0  0  0  0  0  0  0  0  0  0  0  0
   53.4993   82.8207   23.7324 H   0  0  0  0  0  0  0  0  0  0  0  0
   52.3643   83.5221   24.8705 H   0  0  0  0  0  0  0  0  0  0  0  0
   56.2634   80.4493   26.9494 H   0  0  0  0  0  0  0  0  0  0  0  0
  1  2  2  0
  2  3  1  0
  3  4  1  0
  4  5  1  0
  5  6  1  0
  6  7  2  0
  7  8  1  0
  8  9  2  0
  9 10  1  0
 10 11  1  0
 11 12  1  0
 12 13  1  0
 13 14  1  0
 14 15  1  0
 15 16  2  0
 15 17  2  0
 10 18  2  0
 18 19  1  0
  2 20  1  0
 20 21  1  0
 21 22  1  0
 22 23  1  0
 23 24  2  0
 24 25  1  0
 25 26  2  0
 26 27  1  0
 27 28  1  0
 28 29  1  0
 29 30  1  0
 30 31  1  0
 31 32  1  0
 32 33  2  0
 32 34  2  0
 27 35  2  0
 35 36  1  0
 19  4  2  0
 36 21  2  0
 19  7  1  0
 36 24  1  0
 15 11  1  0
 32 28  1  0
  3 37  1  0
  3 38  1  0
  5 39  1  0
  8 40  1  0
  9 41  1  0
 12 42  1  0
 12 43  1  0
 13 44  1  0
 13 45  1  0
 14 46  1  0
 14 47  1  0
 18 48  1  0
 20 49  1  0
 22 50  1  0
 25 51  1  0
 26 52  1  0
 29 53  1  0
 29 54  1  0
 30 55  1  0
 30 56  1  0
 31 57  1  0
 31 58  1  0
 35 59  1  0
M  END
>  <meeko>  (1) 
{"is_sidechain": false}

>  <smiles>  (1) 
O=C(Cc1[nH]nc2ccc(N3CCCS3(=O)=O)cc12)Nc1[nH]nc2ccc(N3CCCS3(=O)=O)cc12

>  <vina_score>  (1) 
-10.135

>  <job_id>  (1) 
4245261556d77729

$$$$
