
     RDKit          3D

 38 39  0  0  0  0  0  0  0  0999 V2000
   52.1850   75.5030   26.7270 C   0  0  0  0  0  0  0  0  0  0  0  0
   52.5760   76.5270   27.7820 C   0  0  0  0  0  0  0  0  0  0  0  0
   53.4080   77.6420   27.1980 C   0  0  0  0  0  0  0  0  0  0  0  0
   53.2710   77.9620   25.8410 C   0  0  0  0  0  0  0  0  0  0  0  0
   54.0720   78.9450   25.2580 C   0  0  0  0  0  0  0  0  0  0  0  0
   55.0440   79.6060   26.0120 C   0  0  0  0  0  0  0  0  0  0  0  0
   55.2120   79.3010   27.3610 C   0  0  0  0  0  0  0  0  0  0  0  0
   56.2200   79.8670   28.1750 N   0  0  0  0  0  0  0  0  0  0  0  0
   57.4570   79.3400   28.4760 C   0  0  0  0  0  0  0  0  0  0  0  0
   57.9580   78.3260   28.0060 O   0  0  0  0  0  0  0  0  0  0  0  0
   58.2610   80.1390   29.4430 C   0  0  0  0  0  0  0  0  0  0  0  0
   59.3800   80.8680   29.0440 C   0  0  0  0  0  0  0  0  0  0  0  0
   60.0590   81.5830   30.0130 C   0  0  0  0  0  0  0  0  0  0  0  0
   59.6990   81.6150   31.3130 N   0  0  0  0  0  0  0  0  0  0  0  0
   58.5950   80.9210   31.6800 C   0  0  0  0  0  0  0  0  0  0  0  0
   58.1880   80.9820   33.1220 C   0  0  0  0  0  0  0  0  0  0  0  0
   57.8490   80.1770   30.7750 C   0  0  0  0  0  0  0  0  0  0  0  0
   54.3610   78.3450   27.9540 C   0  0  0  0  0  0  0  0  0  0  0  0
   54.5150   78.0590   29.2950 O   0  0  0  0  0  0  0  0  0  0  0  0
   55.1880   76.8050   29.4460 C   0  0  0  0  0  0  0  0  0  0  0  0
   51.8342   74.5843   27.2199 H   0  0  0  0  0  0  0  0  0  0  0  0
   51.3800   75.9125   26.0991 H   0  0  0  0  0  0  0  0  0  0  0  0
   53.0581   75.2718   26.0991 H   0  0  0  0  0  0  0  0  0  0  0  0
   51.6618   76.9557   28.2184 H   0  0  0  0  0  0  0  0  0  0  0  0
   53.1775   76.0163   28.5484 H   0  0  0  0  0  0  0  0  0  0  0  0
   52.5251   77.4335   25.2292 H   0  0  0  0  0  0  0  0  0  0  0  0
   53.9367   79.2010   24.1968 H   0  0  0  0  0  0  0  0  0  0  0  0
   55.6789   80.3698   25.5394 H   0  0  0  0  0  0  0  0  0  0  0  0
   55.9800   80.7830   28.5340 H   0  0  0  0  0  0  0  0  0  0  0  0
   59.7112   80.8742   27.9951 H   0  0  0  0  0  0  0  0  0  0  0  0
   60.9443   82.1594   29.7063 H   0  0  0  0  0  0  0  0  0  0  0  0
   59.0747   80.8491   33.7592 H   0  0  0  0  0  0  0  0  0  0  0  0
   57.7285   81.9591   33.3323 H   0  0  0  0  0  0  0  0  0  0  0  0
   57.4622   80.1826   33.3323 H   0  0  0  0  0  0  0  0  0  0  0  0
   56.9526   79.6295   31.1017 H   0  0  0  0  0  0  0  0  0  0  0  0
   55.3087   76.5801   30.5160 H   0  0  0  0  0  0  0  0  0  0  0  0
   54.5949   76.0108   28.9690 H   0  0  0  0  0  0  0  0  0  0  0  0
   56.1777   76.8602   28.9690 H   0  0  0  0  0  0  0  0  0  0  0  0
  1  2  1  0
  2  3  1  0
  3  4  2  0
  4  5  1  0
  5  6  2  0
  6  7  1  0
  7  8  1  0
  8  9  1  0
  9 10  2  0
  9 11  1  0
 11 12  2  0
 12 13  1  0
 13 14  2  0
 14 15  1  0
 15 16  1  0
 15 17  2  0
  7 18  2  0
 18 19  1  0
 19 20  1  0
 18  3  1  0
 17 11  1  0
  1 21  1  0
  1 22  1  0
  1 23  1  0
  2 24  1  0
  2 25  1  0
  4 26  1  0
  5 27  1  0
  6 28  1  0
  8 29  1  0
 12 30  1  0
 13 31  1  0
 16 32  1  0
 16 33  1  0
 16 34  1  0
 17 35  1  0
 20 36  1  0
 20 37  1  0
 20 38  1  0
M  END
>  <meeko>  (1) 
{"is_sidechain": false}

>  <smiles>  (1) 
CCc1cccc(NC(=O)c2ccnc(C)c2)c1OC

>  <vina_score>  (1) 
-7.517

>  <job_id>  (1) 
426587886697b676

$$$$
