
     RDKit          3D

 45 46  0  0  0  0  0  0  0  0999 V2000
   52.5340   75.0170   26.8170 C   0  0  0  0  0  0  0  0  0  0  0  0
   52.6560   76.2850   27.4860 N   0  0  0  0  0  0  0  0  0  0  0  0
   53.6560   76.5030   28.4080 C   0  0  0  0  0  0  0  0  0  0  0  0
   54.4210   75.6260   28.8050 O   0  0  0  0  0  0  0  0  0  0  0  0
   53.7440   77.9330   28.9100 C   0  0  0  0  0  0  0  0  0  0  0  0
   55.0110   78.6250   28.4620 C   0  0  0  0  0  0  0  0  0  0  0  0
   56.1570   78.5440   29.2700 C   0  0  0  0  0  0  0  0  0  0  0  0
   57.3570   79.1350   28.8690 C   0  0  0  0  0  0  0  0  0  0  0  0
   57.4370   79.8030   27.6490 C   0  0  0  0  0  0  0  0  0  0  0  0
   56.3140   79.8880   26.8290 C   0  0  0  0  0  0  0  0  0  0  0  0
   55.1030   79.3210   27.2430 C   0  0  0  0  0  0  0  0  0  0  0  0
   53.9430   79.4070   26.3310 C   0  0  0  0  0  0  0  0  0  0  0  0
   53.6790   78.3970   25.6780 O   0  0  0  0  0  0  0  0  0  0  0  0
   53.1980   80.5920   26.2780 N   0  0  0  0  0  0  0  0  0  0  0  0
   52.0360   80.5950   25.3870 C   0  0  0  0  0  0  0  0  0  0  0  0
   52.3450   80.7180   23.8950 C   0  0  0  0  0  0  0  0  0  0  0  0
   53.2010   81.9430   23.5750 C   0  0  0  0  0  0  0  0  0  0  0  0
   52.7400   83.2230   24.2710 C   0  0  0  0  0  0  0  0  0  0  0  0
   53.4270   83.5740   25.6090 C   0  0  0  0  0  0  0  0  0  0  0  0
   52.7550   83.0030   26.8600 C   0  0  0  0  0  0  0  0  0  0  0  0
   53.2930   81.6370   27.3030 C   0  0  0  0  0  0  0  0  0  0  0  0
   52.4567   74.2139   27.5647 H   0  0  0  0  0  0  0  0  0  0  0  0
   51.6320   75.0199   26.1874 H   0  0  0  0  0  0  0  0  0  0  0  0
   53.4200   74.8478   26.1874 H   0  0  0  0  0  0  0  0  0  0  0  0
   52.2750   77.1060   27.0080 H   0  0  0  0  0  0  0  0  0  0  0  0
   52.8800   78.4956   28.5267 H   0  0  0  0  0  0  0  0  0  0  0  0
   53.7499   77.9023   30.0096 H   0  0  0  0  0  0  0  0  0  0  0  0
   56.1087   78.0088   30.2298 H   0  0  0  0  0  0  0  0  0  0  0  0
   58.2424   79.0729   29.5188 H   0  0  0  0  0  0  0  0  0  0  0  0
   58.3854   80.2626   27.3337 H   0  0  0  0  0  0  0  0  0  0  0  0
   56.3788   80.4000   25.8576 H   0  0  0  0  0  0  0  0  0  0  0  0
   51.4886   79.6536   25.5423 H   0  0  0  0  0  0  0  0  0  0  0  0
   51.4596   81.4946   25.6490 H   0  0  0  0  0  0  0  0  0  0  0  0
   52.8845   79.8159   23.5707 H   0  0  0  0  0  0  0  0  0  0  0  0
   51.3886   80.8296   23.3631 H   0  0  0  0  0  0  0  0  0  0  0  0
   54.2350   81.7332   23.8863 H   0  0  0  0  0  0  0  0  0  0  0  0
   53.1117   82.1195   22.4929 H   0  0  0  0  0  0  0  0  0  0  0  0
   52.9136   84.0596   23.5782 H   0  0  0  0  0  0  0  0  0  0  0  0
   51.6846   83.0477   24.5265 H   0  0  0  0  0  0  0  0  0  0  0  0
   54.4576   83.1912   25.5723 H   0  0  0  0  0  0  0  0  0  0  0  0
   53.3658   84.6682   25.7040 H   0  0  0  0  0  0  0  0  0  0  0  0
   52.9036   83.7150   27.6852 H   0  0  0  0  0  0  0  0  0  0  0  0
   51.6951   82.8546   26.6059 H   0  0  0  0  0  0  0  0  0  0  0  0
   54.3516   81.7557   27.5775 H   0  0  0  0  0  0  0  0  0  0  0  0
   52.6679   81.3097   28.1469 H   0  0  0  0  0  0  0  0  0  0  0  0
  1  2  1  0
  2  3  1  0
  3  4  2  0
  3  5  1  0
  5  6  1  0
  6  7  2  0
  7  8  1  0
  8  9  2  0
  9 10  1  0
 10 11  2  0
 11 12  1  0
 12 13  2  0
 12 14  1  0
 14 15  1  0
 15 16  1  0
 16 17  1  0
 17 18  1  0
 18 19  1  0
 19 20  1  0
 20 21  1  0
 11  6  1  0
 21 14  1  0
  1 22  1  0
  1 23  1  0
  1 24  1  0
  2 25  1  0
  5 26  1  0
  5 27  1  0
  7 28  1  0
  8 29  1  0
  9 30  1  0
 10 31  1  0
 15 32  1  0
 15 33  1  0
 16 34  1  0
 16 35  1  0
 17 36  1  0
 17 37  1  0
 18 38  1  0
 18 39  1  0
 19 40  1  0
 19 41  1  0
 20 42  1  0
 20 43  1  0
 21 44  1  0
 21 45  1  0
M  END
>  <meeko>  (1) 
{"is_sidechain": false}

>  <smiles>  (1) 
CNC(=O)Cc1ccccc1C(=O)N1CCCCCCC1

>  <vina_score>  (1) 
-5.309

>  <job_id>  (1) 
42ab0c04aaf5d5a1

$$$$
