
     RDKit          3D

 47 48  0  0  0  0  0  0  0  0999 V2000
   52.5630   75.9300   27.1540 C   0  0  0  0  0  0  0  0  0  0  0  0
   52.9230   77.2890   27.7500 C   0  0  0  0  0  0  0  0  0  0  0  0
   54.0320   78.0100   27.1000 N   0  0  0  0  0  0  0  0  0  0  0  0
   53.5680   78.9240   26.0330 C   0  0  0  0  0  0  0  0  0  0  0  0
   53.6870   78.3570   24.6200 C   0  0  0  0  0  0  0  0  0  0  0  0
   54.9590   78.7050   28.0430 C   0  0  0  0  0  0  0  0  0  0  0  0
   55.8680   77.7840   28.8730 C   0  0  0  0  0  0  0  0  0  0  0  0
   56.6800   78.6020   29.8820 C   0  0  0  0  0  0  0  0  0  0  0  0
   57.2590   79.8180   29.2870 N   0  0  0  0  0  0  0  0  0  0  0  0
   58.3100   80.3910   30.0120 C   0  0  0  0  0  0  0  0  0  0  0  0
   58.4470   80.2770   31.3990 C   0  0  0  0  0  0  0  0  0  0  0  0
   59.5210   80.8670   32.0750 C   0  0  0  0  0  0  0  0  0  0  0  0
   60.4660   81.5840   31.3520 C   0  0  0  0  0  0  0  0  0  0  0  0
   61.6590   82.1920   32.0520 C   0  0  0  0  0  0  0  0  0  0  0  0
   62.8000   82.5350   31.0950 C   0  0  0  0  0  0  0  0  0  0  0  0
   63.4590   81.3580   30.6380 O   0  0  0  0  0  0  0  0  0  0  0  0
   60.3960   81.7010   30.0070 N   0  0  0  0  0  0  0  0  0  0  0  0
   59.3380   81.1100   29.3890 C   0  0  0  0  0  0  0  0  0  0  0  0
   57.2640   79.8770   27.8270 C   0  0  0  0  0  0  0  0  0  0  0  0
   55.8480   79.7110   27.2730 C   0  0  0  0  0  0  0  0  0  0  0  0
   52.3729   75.2124   27.9657 H   0  0  0  0  0  0  0  0  0  0  0  0
   51.6602   76.0293   26.5335 H   0  0  0  0  0  0  0  0  0  0  0  0
   53.3966   75.5693   26.5335 H   0  0  0  0  0  0  0  0  0  0  0  0
   52.0290   77.9275   27.6945 H   0  0  0  0  0  0  0  0  0  0  0  0
   53.2667   77.0804   28.7739 H   0  0  0  0  0  0  0  0  0  0  0  0
   52.5105   79.1623   26.2200 H   0  0  0  0  0  0  0  0  0  0  0  0
   54.2206   79.8086   26.0720 H   0  0  0  0  0  0  0  0  0  0  0  0
   53.9127   77.2818   24.6742 H   0  0  0  0  0  0  0  0  0  0  0  0
   52.7380   78.5059   24.0840 H   0  0  0  0  0  0  0  0  0  0  0  0
   54.4960   78.8749   24.0840 H   0  0  0  0  0  0  0  0  0  0  0  0
   54.2950   79.2096   28.7603 H   0  0  0  0  0  0  0  0  0  0  0  0
   55.2475   77.0543   29.4139 H   0  0  0  0  0  0  0  0  0  0  0  0
   56.5613   77.2632   28.1961 H   0  0  0  0  0  0  0  0  0  0  0  0
   56.0194   78.8953   30.7112 H   0  0  0  0  0  0  0  0  0  0  0  0
   57.5117   77.9721   30.2305 H   0  0  0  0  0  0  0  0  0  0  0  0
   57.6955   79.7122   31.9702 H   0  0  0  0  0  0  0  0  0  0  0  0
   59.6158   80.7642   33.1661 H   0  0  0  0  0  0  0  0  0  0  0  0
   61.3365   83.1139   32.5581 H   0  0  0  0  0  0  0  0  0  0  0  0
   62.0394   81.4450   32.7643 H   0  0  0  0  0  0  0  0  0  0  0  0
   62.3917   83.0770   30.2292 H   0  0  0  0  0  0  0  0  0  0  0  0
   63.5306   83.1575   31.6323 H   0  0  0  0  0  0  0  0  0  0  0  0
   63.5910   81.5000   29.6740 H   0  0  0  0  0  0  0  0  0  0  0  0
   59.2847   81.2060   28.2945 H   0  0  0  0  0  0  0  0  0  0  0  0
   57.6651   80.8498   27.5065 H   0  0  0  0  0  0  0  0  0  0  0  0
   57.8916   79.0594   27.4427 H   0  0  0  0  0  0  0  0  0  0  0  0
   55.3537   80.6933   27.2995 H   0  0  0  0  0  0  0  0  0  0  0  0
   55.9608   79.3066   26.2563 H   0  0  0  0  0  0  0  0  0  0  0  0
  1  2  1  0
  2  3  1  0
  3  4  1  0
  4  5  1  0
  3  6  1  0
  6  7  1  0
  7  8  1  0
  8  9  1  0
  9 10  1  0
 10 11  2  0
 11 12  1  0
 12 13  2  0
 13 14  1  0
 14 15  1  0
 15 16  1  0
 13 17  1  0
 17 18  2  0
  9 19  1  0
 19 20  1  0
 20  6  1  0
 18 10  1  0
  1 21  1  0
  1 22  1  0
  1 23  1  0
  2 24  1  0
  2 25  1  0
  4 26  1  0
  4 27  1  0
  5 28  1  0
  5 29  1  0
  5 30  1  0
  6 31  1  0
  7 32  1  0
  7 33  1  0
  8 34  1  0
  8 35  1  0
 11 36  1  0
 12 37  1  0
 14 38  1  0
 14 39  1  0
 15 40  1  0
 15 41  1  0
 16 42  1  0
 18 43  1  0
 19 44  1  0
 19 45  1  0
 20 46  1  0
 20 47  1  0
M  END
>  <meeko>  (1) 
{"is_sidechain": false}

>  <smiles>  (1) 
CCN(CC)C1CCN(c2ccc(CCO)nc2)CC1

>  <vina_score>  (1) 
-6.354

>  <job_id>  (1) 
436d8167f1860155

$$$$
