
     RDKit          3D

 37 40  0  0  0  0  0  0  0  0999 V2000
   57.6110   80.6050   31.9810 O   0  0  0  0  0  0  0  0  0  0  0  0
   58.5950   80.3010   31.3170 C   0  0  0  0  0  0  0  0  0  0  0  0
   58.5900   79.5570   30.1560 N   0  0  0  0  0  0  0  0  0  0  0  0
   57.4160   79.0820   29.6010 C   0  0  0  0  0  0  0  0  0  0  0  0
   56.6850   78.0430   30.1240 N   0  0  0  0  0  0  0  0  0  0  0  0
   55.5710   77.7340   29.4300 N   0  0  0  0  0  0  0  0  0  0  0  0
   55.5610   78.6010   28.4040 C   0  0  0  0  0  0  0  0  0  0  0  0
   54.6320   78.7400   27.3580 C   0  0  0  0  0  0  0  0  0  0  0  0
   54.9270   79.7730   26.4290 C   0  0  0  0  0  0  0  0  0  0  0  0
   54.0160   80.0030   25.2930 C   0  0  0  0  0  0  0  0  0  0  0  0
   53.6850   81.3060   24.8830 C   0  0  0  0  0  0  0  0  0  0  0  0
   52.8200   81.5270   23.8060 C   0  0  0  0  0  0  0  0  0  0  0  0
   52.2810   80.4400   23.1300 C   0  0  0  0  0  0  0  0  0  0  0  0
   51.4340   80.6070   22.0750 O   0  0  0  0  0  0  0  0  0  0  0  0
   52.5890   79.1410   23.5140 C   0  0  0  0  0  0  0  0  0  0  0  0
   53.4520   78.9240   24.5910 C   0  0  0  0  0  0  0  0  0  0  0  0
   56.1000   80.6030   26.5720 C   0  0  0  0  0  0  0  0  0  0  0  0
   57.0520   80.4880   27.6100 C   0  0  0  0  0  0  0  0  0  0  0  0
   56.7150   79.4640   28.4890 C   0  0  0  0  0  0  0  0  0  0  0  0
   59.9520   80.7110   31.7590 C   0  0  0  0  0  0  0  0  0  0  0  0
   60.4130   82.1470   31.6510 C   0  0  0  0  0  0  0  0  0  0  0  0
   60.1070   81.5630   32.9980 C   0  0  0  0  0  0  0  0  0  0  0  0
   59.4650   79.3520   29.6930 H   0  0  0  0  0  0  0  0  0  0  0  0
   56.9130   77.5110   30.9610 H   0  0  0  0  0  0  0  0  0  0  0  0
   53.7440   78.0974   27.2661 H   0  0  0  0  0  0  0  0  0  0  0  0
   54.1133   82.1664   25.4180 H   0  0  0  0  0  0  0  0  0  0  0  0
   52.5690   82.5525   23.4973 H   0  0  0  0  0  0  0  0  0  0  0  0
   50.9660   79.7710   21.9170 H   0  0  0  0  0  0  0  0  0  0  0  0
   52.1554   78.2872   22.9726 H   0  0  0  0  0  0  0  0  0  0  0  0
   53.6934   77.8944   24.8937 H   0  0  0  0  0  0  0  0  0  0  0  0
   56.2650   81.3842   25.8154 H   0  0  0  0  0  0  0  0  0  0  0  0
   57.9432   81.1251   27.7098 H   0  0  0  0  0  0  0  0  0  0  0  0
   60.3469   79.7463   31.4077 H   0  0  0  0  0  0  0  0  0  0  0  0
   61.4535   82.3704   31.3727 H   0  0  0  0  0  0  0  0  0  0  0  0
   60.0727   83.0317   31.0929 H   0  0  0  0  0  0  0  0  0  0  0  0
   60.9234   81.3588   33.7064 H   0  0  0  0  0  0  0  0  0  0  0  0
   59.4499   81.8433   33.8344 H   0  0  0  0  0  0  0  0  0  0  0  0
  1  2  2  0
  2  3  1  0
  3  4  1  0
  4  5  1  0
  5  6  1  0
  6  7  2  0
  7  8  1  0
  8  9  2  0
  9 10  1  0
 10 11  1  0
 11 12  2  0
 12 13  1  0
 13 14  1  0
 13 15  2  0
 15 16  1  0
  9 17  1  0
 17 18  2  0
 18 19  1  0
  2 20  1  0
 20 21  1  0
 21 22  1  0
 19  4  2  0
 22 20  1  0
 19  7  1  0
 16 10  2  0
  3 23  1  0
  5 24  1  0
  8 25  1  0
 11 26  1  0
 12 27  1  0
 14 28  1  0
 15 29  1  0
 16 30  1  0
 17 31  1  0
 18 32  1  0
 20 33  1  0
 21 34  1  0
 21 35  1  0
 22 36  1  0
 22 37  1  0
M  END
>  <meeko>  (1) 
{"is_sidechain": false}

>  <smiles>  (1) 
O=C(Nc1[nH]nc2cc(-c3ccc(O)cc3)ccc12)C1CC1

>  <vina_score>  (1) 
-7.827

>  <job_id>  (1) 
43dfee0a9b77cf76

$$$$
