
     RDKit          3D

 32 33  0  0  0  0  0  0  0  0999 V2000
   50.6640   85.9120   20.6500 C   0  0  0  0  0  0  0  0  0  0  0  0
   51.0600   84.8700   21.5380 O   0  0  0  0  0  0  0  0  0  0  0  0
   51.0600   83.5950   20.8950 C   0  0  0  0  0  0  0  0  0  0  0  0
   51.0950   82.4260   21.8860 C   0  0  0  0  0  0  0  0  0  0  0  0
   50.2390   81.5480   21.8760 O   0  0  0  0  0  0  0  0  0  0  0  0
   52.1970   82.4880   22.7190 N   0  0  0  0  0  0  0  0  0  0  0  0
   52.5590   81.5780   23.7270 C   0  0  0  0  0  0  0  0  0  0  0  0
   52.5950   82.0400   25.0410 C   0  0  0  0  0  0  0  0  0  0  0  0
   52.9490   81.1740   26.0780 C   0  0  0  0  0  0  0  0  0  0  0  0
   53.2670   79.8480   25.7880 C   0  0  0  0  0  0  0  0  0  0  0  0
   53.6530   78.8610   26.8190 C   0  0  0  0  0  0  0  0  0  0  0  0
   54.6810   79.1540   27.7400 C   0  0  0  0  0  0  0  0  0  0  0  0
   55.0680   78.2390   28.7240 C   0  0  0  0  0  0  0  0  0  0  0  0
   54.4270   77.0110   28.8060 C   0  0  0  0  0  0  0  0  0  0  0  0
   54.8090   76.1430   29.7540 F   0  0  0  0  0  0  0  0  0  0  0  0
   53.4020   76.6940   27.9200 C   0  0  0  0  0  0  0  0  0  0  0  0
   52.5940   75.1750   28.0200 Cl  0  0  0  0  0  0  0  0  0  0  0  0
   53.0160   77.6100   26.9360 C   0  0  0  0  0  0  0  0  0  0  0  0
   53.2280   79.3810   24.5160 N   0  0  0  0  0  0  0  0  0  0  0  0
   52.8830   80.2440   23.5230 C   0  0  0  0  0  0  0  0  0  0  0  0
   50.3326   86.7841   21.2327 H   0  0  0  0  0  0  0  0  0  0  0  0
   51.5165   86.1971   20.0160 H   0  0  0  0  0  0  0  0  0  0  0  0
   49.8373   85.5590   20.0160 H   0  0  0  0  0  0  0  0  0  0  0  0
   50.1490   83.5101   20.2844 H   0  0  0  0  0  0  0  0  0  0  0  0
   51.9714   83.5349   20.2820 H   0  0  0  0  0  0  0  0  0  0  0  0
   52.7830   83.3100   22.5870 H   0  0  0  0  0  0  0  0  0  0  0  0
   52.3443   83.0880   25.2619 H   0  0  0  0  0  0  0  0  0  0  0  0
   52.9767   81.5357   27.1164 H   0  0  0  0  0  0  0  0  0  0  0  0
   55.1909   80.1270   27.6825 H   0  0  0  0  0  0  0  0  0  0  0  0
   55.8748   78.4908   29.4280 H   0  0  0  0  0  0  0  0  0  0  0  0
   52.2025   77.3495   26.2429 H   0  0  0  0  0  0  0  0  0  0  0  0
   52.8593   79.8602   22.4924 H   0  0  0  0  0  0  0  0  0  0  0  0
  1  2  1  0
  2  3  1  0
  3  4  1  0
  4  5  2  0
  4  6  1  0
  6  7  1  0
  7  8  2  0
  8  9  1  0
  9 10  2  0
 10 11  1  0
 11 12  1  0
 12 13  2  0
 13 14  1  0
 14 15  1  0
 14 16  2  0
 16 17  1  0
 16 18  1  0
 10 19  1  0
 19 20  2  0
 20  7  1  0
 18 11  2  0
  1 21  1  0
  1 22  1  0
  1 23  1  0
  3 24  1  0
  3 25  1  0
  6 26  1  0
  8 27  1  0
  9 28  1  0
 12 29  1  0
 13 30  1  0
 18 31  1  0
 20 32  1  0
M  END
>  <meeko>  (1) 
{"is_sidechain": false}

>  <smiles>  (1) 
COCC(=O)Nc1ccc(-c2ccc(F)c(Cl)c2)nc1

>  <vina_score>  (1) 
-7.732

>  <job_id>  (1) 
44494bf869075476

$$$$
