
     RDKit          3D

 43 45  0  0  0  0  0  0  0  0999 V2000
   63.1580   82.8930   32.9180 C   0  0  0  0  0  0  0  0  0  0  0  0
   61.9360   83.2140   32.1860 N   0  0  0  0  0  0  0  0  0  0  0  0
   60.7360   82.6690   32.8560 C   0  0  0  0  0  0  0  0  0  0  0  0
   60.1880   81.3390   32.2840 C   0  0  0  0  0  0  0  0  0  0  0  0
   59.9100   81.4530   30.8430 N   0  0  0  0  0  0  0  0  0  0  0  0
   58.9490   80.6700   30.2270 C   0  0  0  0  0  0  0  0  0  0  0  0
   58.0340   79.9010   30.9600 C   0  0  0  0  0  0  0  0  0  0  0  0
   57.0600   79.1070   30.3340 C   0  0  0  0  0  0  0  0  0  0  0  0
   56.9640   79.0550   28.9430 C   0  0  0  0  0  0  0  0  0  0  0  0
   55.9590   78.2330   28.3940 N   0  0  0  0  0  0  0  0  0  0  0  0
   54.6460   78.5670   28.1200 C   0  0  0  0  0  0  0  0  0  0  0  0
   54.1300   79.6640   28.3170 O   0  0  0  0  0  0  0  0  0  0  0  0
   53.7900   77.4900   27.5320 C   0  0  0  0  0  0  0  0  0  0  0  0
   53.4510   76.3920   28.3380 C   0  0  0  0  0  0  0  0  0  0  0  0
   52.6530   75.3570   27.8380 C   0  0  0  0  0  0  0  0  0  0  0  0
   52.1850   75.4080   26.5260 C   0  0  0  0  0  0  0  0  0  0  0  0
   52.5140   76.4920   25.7160 C   0  0  0  0  0  0  0  0  0  0  0  0
   53.3100   77.5210   26.2190 C   0  0  0  0  0  0  0  0  0  0  0  0
   53.6000   78.5440   25.3990 F   0  0  0  0  0  0  0  0  0  0  0  0
   57.8590   79.8100   28.1960 C   0  0  0  0  0  0  0  0  0  0  0  0
   58.8310   80.6010   28.8310 C   0  0  0  0  0  0  0  0  0  0  0  0
   60.6630   82.4840   30.1110 C   0  0  0  0  0  0  0  0  0  0  0  0
   62.0300   82.7410   30.7880 C   0  0  0  0  0  0  0  0  0  0  0  0
   62.9620   82.9445   33.9992 H   0  0  0  0  0  0  0  0  0  0  0  0
   63.4881   81.8777   32.6531 H   0  0  0  0  0  0  0  0  0  0  0  0
   63.9445   83.6150   32.6531 H   0  0  0  0  0  0  0  0  0  0  0  0
   60.9869   82.5029   33.9141 H   0  0  0  0  0  0  0  0  0  0  0  0
   59.9414   83.4124   32.6947 H   0  0  0  0  0  0  0  0  0  0  0  0
   60.9331   80.5457   32.4439 H   0  0  0  0  0  0  0  0  0  0  0  0
   59.2478   81.0985   32.8019 H   0  0  0  0  0  0  0  0  0  0  0  0
   58.0807   79.9204   32.0588 H   0  0  0  0  0  0  0  0  0  0  0  0
   56.3632   78.5180   30.9484 H   0  0  0  0  0  0  0  0  0  0  0  0
   56.2480   77.2850   28.1760 H   0  0  0  0  0  0  0  0  0  0  0  0
   53.8167   76.3446   29.3743 H   0  0  0  0  0  0  0  0  0  0  0  0
   52.3948   74.5025   28.4808 H   0  0  0  0  0  0  0  0  0  0  0  0
   51.5579   74.5948   26.1318 H   0  0  0  0  0  0  0  0  0  0  0  0
   52.1464   76.5367   24.6802 H   0  0  0  0  0  0  0  0  0  0  0  0
   57.8063   79.7884   27.0975 H   0  0  0  0  0  0  0  0  0  0  0  0
   59.5248   81.1876   28.2109 H   0  0  0  0  0  0  0  0  0  0  0  0
   60.8290   82.1455   29.0776 H   0  0  0  0  0  0  0  0  0  0  0  0
   60.0828   83.4185   30.1159 H   0  0  0  0  0  0  0  0  0  0  0  0
   62.6009   81.8008   30.7798 H   0  0  0  0  0  0  0  0  0  0  0  0
   62.5197   83.5427   30.2158 H   0  0  0  0  0  0  0  0  0  0  0  0
  1  2  1  0
  2  3  1  0
  3  4  1  0
  4  5  1  0
  5  6  1  0
  6  7  1  0
  7  8  2  0
  8  9  1  0
  9 10  1  0
 10 11  1  0
 11 12  2  0
 11 13  1  0
 13 14  2  0
 14 15  1  0
 15 16  2  0
 16 17  1  0
 17 18  2  0
 18 19  1  0
  9 20  2  0
 20 21  1  0
  5 22  1  0
 22 23  1  0
 23  2  1  0
 21  6  2  0
 18 13  1  0
  1 24  1  0
  1 25  1  0
  1 26  1  0
  3 27  1  0
  3 28  1  0
  4 29  1  0
  4 30  1  0
  7 31  1  0
  8 32  1  0
 10 33  1  0
 14 34  1  0
 15 35  1  0
 16 36  1  0
 17 37  1  0
 20 38  1  0
 21 39  1  0
 22 40  1  0
 22 41  1  0
 23 42  1  0
 23 43  1  0
M  END
>  <meeko>  (1) 
{"is_sidechain": false}

>  <smiles>  (1) 
CN1CCN(c2ccc(NC(=O)c3ccccc3F)cc2)CC1

>  <vina_score>  (1) 
-7.632

>  <job_id>  (1) 
44530a29ee3dc07f

$$$$
