
     RDKit          3D

 34 35  0  0  0  0  0  0  0  0999 V2000
   53.5720   78.2460   24.6040 C   0  0  0  0  0  0  0  0  0  0  0  0
   53.3100   77.6110   25.9400 C   0  0  0  0  0  0  0  0  0  0  0  0
   52.5540   76.4280   25.9940 C   0  0  0  0  0  0  0  0  0  0  0  0
   52.3170   75.7840   27.2110 C   0  0  0  0  0  0  0  0  0  0  0  0
   52.8290   76.3100   28.3950 C   0  0  0  0  0  0  0  0  0  0  0  0
   53.5670   77.4910   28.3650 C   0  0  0  0  0  0  0  0  0  0  0  0
   53.7880   78.1530   27.1490 C   0  0  0  0  0  0  0  0  0  0  0  0
   54.5390   79.4310   27.2160 C   0  0  0  0  0  0  0  0  0  0  0  0
   53.9820   80.4610   26.8660 O   0  0  0  0  0  0  0  0  0  0  0  0
   55.8400   79.2920   27.6600 N   0  0  0  0  0  0  0  0  0  0  0  0
   56.8080   80.2830   27.6300 C   0  0  0  0  0  0  0  0  0  0  0  0
   56.6260   81.4660   27.3640 O   0  0  0  0  0  0  0  0  0  0  0  0
   58.1850   79.7740   28.0200 C   0  0  0  0  0  0  0  0  0  0  0  0
   58.7060   80.4130   29.2790 C   0  0  0  0  0  0  0  0  0  0  0  0
   59.7360   81.3620   29.2350 C   0  0  0  0  0  0  0  0  0  0  0  0
   60.2170   81.9340   30.4150 C   0  0  0  0  0  0  0  0  0  0  0  0
   59.6820   81.5600   31.6480 C   0  0  0  0  0  0  0  0  0  0  0  0
   58.6670   80.6070   31.7050 C   0  0  0  0  0  0  0  0  0  0  0  0
   58.1930   80.0430   30.5260 C   0  0  0  0  0  0  0  0  0  0  0  0
   57.2380   79.1020   30.5890 F   0  0  0  0  0  0  0  0  0  0  0  0
   53.9877   79.2536   24.7521 H   0  0  0  0  0  0  0  0  0  0  0  0
   54.2903   77.6321   24.0408 H   0  0  0  0  0  0  0  0  0  0  0  0
   52.6298   78.3173   24.0408 H   0  0  0  0  0  0  0  0  0  0  0  0
   52.1434   76.0033   25.0661 H   0  0  0  0  0  0  0  0  0  0  0  0
   51.7238   74.8580   27.2344 H   0  0  0  0  0  0  0  0  0  0  0  0
   52.6511   75.7945   29.3503 H   0  0  0  0  0  0  0  0  0  0  0  0
   53.9774   77.9053   29.2977 H   0  0  0  0  0  0  0  0  0  0  0  0
   56.1660   78.3450   27.8030 H   0  0  0  0  0  0  0  0  0  0  0  0
   58.1271   78.6866   28.1754 H   0  0  0  0  0  0  0  0  0  0  0  0
   58.8775   80.0326   27.2054 H   0  0  0  0  0  0  0  0  0  0  0  0
   60.1675   81.6577   28.2673 H   0  0  0  0  0  0  0  0  0  0  0  0
   61.0215   82.6830   30.3719 H   0  0  0  0  0  0  0  0  0  0  0  0
   60.0610   82.0169   32.5741 H   0  0  0  0  0  0  0  0  0  0  0  0
   58.2445   80.3036   32.6743 H   0  0  0  0  0  0  0  0  0  0  0  0
  1  2  1  0
  2  3  2  0
  3  4  1  0
  4  5  2  0
  5  6  1  0
  6  7  2  0
  7  8  1  0
  8  9  2  0
  8 10  1  0
 10 11  1  0
 11 12  2  0
 11 13  1  0
 13 14  1  0
 14 15  2  0
 15 16  1  0
 16 17  2  0
 17 18  1  0
 18 19  2  0
 19 20  1  0
  7  2  1  0
 19 14  1  0
  1 21  1  0
  1 22  1  0
  1 23  1  0
  3 24  1  0
  4 25  1  0
  5 26  1  0
  6 27  1  0
 10 28  1  0
 13 29  1  0
 13 30  1  0
 15 31  1  0
 16 32  1  0
 17 33  1  0
 18 34  1  0
M  END
>  <meeko>  (1) 
{"is_sidechain": false}

>  <smiles>  (1) 
Cc1ccccc1C(=O)NC(=O)Cc1ccccc1F

>  <vina_score>  (1) 
-8.141

>  <job_id>  (1) 
44b4fad01c41727d

$$$$
