
     RDKit          3D

 41 43  0  0  0  0  0  0  0  0999 V2000
   52.6730   81.3460   22.4960 C   0  0  0  0  0  0  0  0  0  0  0  0
   51.9010   80.4990   23.4020 N   0  0  0  0  0  0  0  0  0  0  0  0
   51.8090   81.0900   24.7550 C   0  0  0  0  0  0  0  0  0  0  0  0
   53.1090   81.0520   25.5970 C   0  0  0  0  0  0  0  0  0  0  0  0
   53.6690   79.6800   25.6480 N   0  0  0  0  0  0  0  0  0  0  0  0
   54.7190   79.5220   26.5650 C   0  0  0  0  0  0  0  0  0  0  0  0
   54.7000   78.5950   27.6140 C   0  0  0  0  0  0  0  0  0  0  0  0
   55.7710   78.4750   28.5140 C   0  0  0  0  0  0  0  0  0  0  0  0
   56.8950   79.2950   28.4140 C   0  0  0  0  0  0  0  0  0  0  0  0
   58.0060   79.1870   29.2660 N   0  0  0  0  0  0  0  0  0  0  0  0
   58.7170   80.1420   30.0140 C   0  0  0  0  0  0  0  0  0  0  0  0
   59.6850   80.9820   29.4530 C   0  0  0  0  0  0  0  0  0  0  0  0
   60.3960   81.8930   30.2420 C   0  0  0  0  0  0  0  0  0  0  0  0
   60.1510   81.9700   31.6100 C   0  0  0  0  0  0  0  0  0  0  0  0
   59.1960   81.1380   32.1880 C   0  0  0  0  0  0  0  0  0  0  0  0
   58.4880   80.2310   31.3950 C   0  0  0  0  0  0  0  0  0  0  0  0
   56.9200   80.2320   27.3800 C   0  0  0  0  0  0  0  0  0  0  0  0
   55.8520   80.3460   26.4800 C   0  0  0  0  0  0  0  0  0  0  0  0
   53.8120   79.0620   24.3140 C   0  0  0  0  0  0  0  0  0  0  0  0
   52.4860   79.1450   23.5200 C   0  0  0  0  0  0  0  0  0  0  0  0
   53.3000   82.0339   23.0822 H   0  0  0  0  0  0  0  0  0  0  0  0
   53.3139   80.7159   21.8618 H   0  0  0  0  0  0  0  0  0  0  0  0
   51.9863   81.9259   21.8618 H   0  0  0  0  0  0  0  0  0  0  0  0
   51.5095   82.1426   24.6439 H   0  0  0  0  0  0  0  0  0  0  0  0
   51.0807   80.4730   25.3017 H   0  0  0  0  0  0  0  0  0  0  0  0
   53.8506   81.7267   25.1444 H   0  0  0  0  0  0  0  0  0  0  0  0
   52.8720   81.3722   26.6223 H   0  0  0  0  0  0  0  0  0  0  0  0
   53.8224   77.9432   27.7364 H   0  0  0  0  0  0  0  0  0  0  0  0
   55.7228   77.7203   29.3128 H   0  0  0  0  0  0  0  0  0  0  0  0
   58.3750   78.2470   29.3420 H   0  0  0  0  0  0  0  0  0  0  0  0
   59.8905   80.9254   28.3739 H   0  0  0  0  0  0  0  0  0  0  0  0
   61.1491   82.5488   29.7808 H   0  0  0  0  0  0  0  0  0  0  0  0
   60.7095   82.6852   32.2318 H   0  0  0  0  0  0  0  0  0  0  0  0
   58.9988   81.1946   33.2687 H   0  0  0  0  0  0  0  0  0  0  0  0
   57.7381   79.5755   31.8619 H   0  0  0  0  0  0  0  0  0  0  0  0
   57.7929   80.8922   27.2696 H   0  0  0  0  0  0  0  0  0  0  0  0
   55.9031   81.1033   25.6838 H   0  0  0  0  0  0  0  0  0  0  0  0
   54.5994   79.5894   23.7556 H   0  0  0  0  0  0  0  0  0  0  0  0
   54.0767   78.0024   24.4449 H   0  0  0  0  0  0  0  0  0  0  0  0
   52.6743   78.7669   22.5043 H   0  0  0  0  0  0  0  0  0  0  0  0
   51.7559   78.5475   24.0856 H   0  0  0  0  0  0  0  0  0  0  0  0
  1  2  1  0
  2  3  1  0
  3  4  1  0
  4  5  1  0
  5  6  1  0
  6  7  1  0
  7  8  2  0
  8  9  1  0
  9 10  1  0
 10 11  1  0
 11 12  2  0
 12 13  1  0
 13 14  2  0
 14 15  1  0
 15 16  2  0
  9 17  2  0
 17 18  1  0
  5 19  1  0
 19 20  1  0
 20  2  1  0
 18  6  2  0
 16 11  1  0
  1 21  1  0
  1 22  1  0
  1 23  1  0
  3 24  1  0
  3 25  1  0
  4 26  1  0
  4 27  1  0
  7 28  1  0
  8 29  1  0
 10 30  1  0
 12 31  1  0
 13 32  1  0
 14 33  1  0
 15 34  1  0
 16 35  1  0
 17 36  1  0
 18 37  1  0
 19 38  1  0
 19 39  1  0
 20 40  1  0
 20 41  1  0
M  END
>  <meeko>  (1) 
{"is_sidechain": false}

>  <smiles>  (1) 
CN1CCN(c2ccc(Nc3ccccc3)cc2)CC1

>  <vina_score>  (1) 
-7.587

>  <job_id>  (1) 
44b72a68071872f4

$$$$
