
     RDKit          3D

 37 38  0  0  0  0  0  0  0  0999 V2000
   52.1850   75.5930   26.3330 C   0  0  0  0  0  0  0  0  0  0  0  0
   52.5580   75.3570   27.7890 C   0  0  0  0  0  0  0  0  0  0  0  0
   53.6310   76.3090   28.2530 C   0  0  0  0  0  0  0  0  0  0  0  0
   53.6360   77.6390   27.8190 C   0  0  0  0  0  0  0  0  0  0  0  0
   54.6210   78.5320   28.2590 C   0  0  0  0  0  0  0  0  0  0  0  0
   55.6110   78.1120   29.1470 C   0  0  0  0  0  0  0  0  0  0  0  0
   56.6410   78.9450   29.6340 N   0  0  0  0  0  0  0  0  0  0  0  0
   57.7560   79.3880   28.9470 C   0  0  0  0  0  0  0  0  0  0  0  0
   58.0210   79.1970   27.7670 O   0  0  0  0  0  0  0  0  0  0  0  0
   58.6960   80.2220   29.7500 C   0  0  0  0  0  0  0  0  0  0  0  0
   59.5720   81.1370   29.1450 C   0  0  0  0  0  0  0  0  0  0  0  0
   60.4350   81.9040   29.9330 C   0  0  0  0  0  0  0  0  0  0  0  0
   60.4180   81.7550   31.3240 C   0  0  0  0  0  0  0  0  0  0  0  0
   61.4870   82.7490   32.3260 S   0  0  0  0  0  0  0  0  0  0  0  0
   62.8120   81.7360   32.5230 N   0  0  0  0  0  0  0  0  0  0  0  0
   60.9020   82.9010   33.6380 O   0  0  0  0  0  0  0  0  0  0  0  0
   61.9580   83.8700   31.5490 O   0  0  0  0  0  0  0  0  0  0  0  0
   59.5280   80.8680   31.9360 C   0  0  0  0  0  0  0  0  0  0  0  0
   58.6670   80.1030   31.1460 C   0  0  0  0  0  0  0  0  0  0  0  0
   55.6040   76.7820   29.5840 C   0  0  0  0  0  0  0  0  0  0  0  0
   54.6210   75.8880   29.1450 C   0  0  0  0  0  0  0  0  0  0  0  0
   51.2564   76.1805   26.2830 H   0  0  0  0  0  0  0  0  0  0  0  0
   52.9947   76.1435   25.8317 H   0  0  0  0  0  0  0  0  0  0  0  0
   52.0342   74.6256   25.8317 H   0  0  0  0  0  0  0  0  0  0  0  0
   51.6632   75.4974   28.4131 H   0  0  0  0  0  0  0  0  0  0  0  0
   52.9469   74.3322   27.8807 H   0  0  0  0  0  0  0  0  0  0  0  0
   52.8575   77.9872   27.1243 H   0  0  0  0  0  0  0  0  0  0  0  0
   54.6138   79.5723   27.9016 H   0  0  0  0  0  0  0  0  0  0  0  0
   56.5020   79.3050   30.5690 H   0  0  0  0  0  0  0  0  0  0  0  0
   59.5793   81.2504   28.0509 H   0  0  0  0  0  0  0  0  0  0  0  0
   61.1237   82.6208   29.4620 H   0  0  0  0  0  0  0  0  0  0  0  0
   63.6700   82.2470   32.3090 H   0  0  0  0  0  0  0  0  0  0  0  0
   62.8010   81.3330   33.4610 H   0  0  0  0  0  0  0  0  0  0  0  0
   59.5058   80.7731   33.0317 H   0  0  0  0  0  0  0  0  0  0  0  0
   57.9632   79.4041   31.6216 H   0  0  0  0  0  0  0  0  0  0  0  0
   56.3810   76.4354   30.2812 H   0  0  0  0  0  0  0  0  0  0  0  0
   54.6276   74.8482   29.5040 H   0  0  0  0  0  0  0  0  0  0  0  0
  1  2  1  0
  2  3  1  0
  3  4  1  0
  4  5  2  0
  5  6  1  0
  6  7  1  0
  7  8  1  0
  8  9  2  0
  8 10  1  0
 10 11  1  0
 11 12  2  0
 12 13  1  0
 13 14  1  0
 14 15  1  0
 14 16  2  0
 14 17  2  0
 13 18  2  0
 18 19  1  0
  6 20  2  0
 20 21  1  0
 21  3  2  0
 19 10  2  0
  1 22  1  0
  1 23  1  0
  1 24  1  0
  2 25  1  0
  2 26  1  0
  4 27  1  0
  5 28  1  0
  7 29  1  0
 11 30  1  0
 12 31  1  0
 15 32  1  0
 15 33  1  0
 18 34  1  0
 19 35  1  0
 20 36  1  0
 21 37  1  0
M  END
>  <meeko>  (1) 
{"is_sidechain": false}

>  <smiles>  (1) 
CCc1ccc(NC(=O)c2ccc(S(N)(=O)=O)cc2)cc1

>  <vina_score>  (1) 
-7.968

>  <job_id>  (1) 
4515b8402011bb3a

$$$$
