
     RDKit          3D

 53 55  0  0  0  0  0  0  0  0999 V2000
   55.7030   82.3670   26.2720 C   0  0  0  0  0  0  0  0  0  0  0  0
   54.4230   82.0350   26.5110 C   0  0  0  0  0  0  0  0  0  0  0  0
   53.3290   83.0650   26.5200 C   0  0  0  0  0  0  0  0  0  0  0  0
   54.0440   80.6260   26.7640 C   0  0  0  0  0  0  0  0  0  0  0  0
   53.0020   80.0270   26.0490 C   0  0  0  0  0  0  0  0  0  0  0  0
   52.6190   78.6990   26.2780 C   0  0  0  0  0  0  0  0  0  0  0  0
   53.3090   77.9720   27.2570 C   0  0  0  0  0  0  0  0  0  0  0  0
   54.3500   78.5340   27.9990 C   0  0  0  0  0  0  0  0  0  0  0  0
   54.7150   79.8740   27.7460 C   0  0  0  0  0  0  0  0  0  0  0  0
   54.8280   77.5320   28.9030 C   0  0  0  0  0  0  0  0  0  0  0  0
   55.9360   77.6780   29.8950 C   0  0  0  0  0  0  0  0  0  0  0  0
   57.0320   78.6300   29.4170 C   0  0  0  0  0  0  0  0  0  0  0  0
   57.5080   79.4820   30.4960 N   0  0  0  0  0  0  0  0  0  0  0  0
   58.6610   80.2060   30.3260 C   0  0  0  0  0  0  0  0  0  0  0  0
   59.3040   80.1890   29.2820 O   0  0  0  0  0  0  0  0  0  0  0  0
   59.0460   80.9480   31.4350 N   0  0  0  0  0  0  0  0  0  0  0  0
   60.2730   81.7290   31.3000 C   0  0  0  0  0  0  0  0  0  0  0  0
   60.6730   82.4590   32.5840 C   0  0  0  0  0  0  0  0  0  0  0  0
   60.3540   81.5880   33.7970 C   0  0  0  0  0  0  0  0  0  0  0  0
   60.8050   82.2260   35.0350 N   0  0  0  0  0  0  0  0  0  0  0  0
   58.8520   81.2770   33.8790 C   0  0  0  0  0  0  0  0  0  0  0  0
   58.1530   81.3470   32.5200 C   0  0  0  0  0  0  0  0  0  0  0  0
   54.0690   76.3990   28.6820 C   0  0  0  0  0  0  0  0  0  0  0  0
   53.1640   76.6730   27.6930 N   0  0  0  0  0  0  0  0  0  0  0  0
   52.1930   75.7320   27.1800 C   0  0  0  0  0  0  0  0  0  0  0  0
   56.4819   81.5902   26.2720 H   0  0  0  0  0  0  0  0  0  0  0  0
   55.9719   83.4155   26.0763 H   0  0  0  0  0  0  0  0  0  0  0  0
   53.0666   83.3121   27.5593 H   0  0  0  0  0  0  0  0  0  0  0  0
   53.6754   83.9724   26.0037 H   0  0  0  0  0  0  0  0  0  0  0  0
   52.4441   82.6645   26.0037 H   0  0  0  0  0  0  0  0  0  0  0  0
   52.4690   80.6141   25.2866 H   0  0  0  0  0  0  0  0  0  0  0  0
   51.7996   78.2400   25.7053 H   0  0  0  0  0  0  0  0  0  0  0  0
   55.5314   80.3345   28.3217 H   0  0  0  0  0  0  0  0  0  0  0  0
   55.5178   78.0662   30.8355 H   0  0  0  0  0  0  0  0  0  0  0  0
   56.3927   76.6867   30.0323 H   0  0  0  0  0  0  0  0  0  0  0  0
   57.8751   78.0387   29.0304 H   0  0  0  0  0  0  0  0  0  0  0  0
   56.6106   79.2732   28.6304 H   0  0  0  0  0  0  0  0  0  0  0  0
   57.4380   79.0810   31.4190 H   0  0  0  0  0  0  0  0  0  0  0  0
   61.0898   81.0489   31.0166 H   0  0  0  0  0  0  0  0  0  0  0  0
   60.0868   82.4967   30.5345 H   0  0  0  0  0  0  0  0  0  0  0  0
   61.7519   82.6722   32.5615 H   0  0  0  0  0  0  0  0  0  0  0  0
   60.1096   83.4010   32.6559 H   0  0  0  0  0  0  0  0  0  0  0  0
   60.8977   80.6398   33.6735 H   0  0  0  0  0  0  0  0  0  0  0  0
   61.7560   81.9260   35.2490 H   0  0  0  0  0  0  0  0  0  0  0  0
   60.8490   83.2370   34.9050 H   0  0  0  0  0  0  0  0  0  0  0  0
   58.7255   80.2632   34.2866 H   0  0  0  0  0  0  0  0  0  0  0  0
   58.3925   82.0392   34.5255 H   0  0  0  0  0  0  0  0  0  0  0  0
   57.2824   80.6748   32.5313 H   0  0  0  0  0  0  0  0  0  0  0  0
   57.8432   82.3880   32.3456 H   0  0  0  0  0  0  0  0  0  0  0  0
   54.1743   75.4402   29.2109 H   0  0  0  0  0  0  0  0  0  0  0  0
   51.6826   75.2374   28.0196 H   0  0  0  0  0  0  0  0  0  0  0  0
   51.4539   76.2664   26.5651 H   0  0  0  0  0  0  0  0  0  0  0  0
   52.7039   74.9765   26.5651 H   0  0  0  0  0  0  0  0  0  0  0  0
  1  2  2  0
  2  3  1  0
  2  4  1  0
  4  5  2  0
  5  6  1  0
  6  7  2  0
  7  8  1  0
  8  9  2  0
  8 10  1  0
 10 11  1  0
 11 12  1  0
 12 13  1  0
 13 14  1  0
 14 15  2  0
 14 16  1  0
 16 17  1  0
 17 18  1  0
 18 19  1  0
 19 20  1  0
 19 21  1  0
 21 22  1  0
 10 23  2  0
 23 24  1  0
 24 25  1  0
  9  4  1  0
 22 16  1  0
 24  7  1  0
  1 26  1  0
  1 27  1  0
  3 28  1  0
  3 29  1  0
  3 30  1  0
  5 31  1  0
  6 32  1  0
  9 33  1  0
 11 34  1  0
 11 35  1  0
 12 36  1  0
 12 37  1  0
 13 38  1  0
 17 39  1  0
 17 40  1  0
 18 41  1  0
 18 42  1  0
 19 43  1  0
 20 44  1  0
 20 45  1  0
 21 46  1  0
 21 47  1  0
 22 48  1  0
 22 49  1  0
 23 50  1  0
 25 51  1  0
 25 52  1  0
 25 53  1  0
M  END
>  <meeko>  (1) 
{"is_sidechain": false}

>  <smiles>  (1) 
C=C(C)c1ccc2c(c1)c(CCNC(=O)N1CCC(N)CC1)cn2C

>  <vina_score>  (1) 
-8.579

>  <job_id>  (1) 
45368e85fedbd839

$$$$
