
     RDKit          3D

 47 49  0  0  0  0  0  0  0  0999 V2000
   53.7020   77.3340   28.3950 C   0  0  0  0  0  0  0  0  0  0  0  0
   55.0360   77.8220   28.5530 O   0  0  0  0  0  0  0  0  0  0  0  0
   55.2380   78.9030   27.7220 C   0  0  0  0  0  0  0  0  0  0  0  0
   54.2390   79.2610   26.8070 C   0  0  0  0  0  0  0  0  0  0  0  0
   54.4120   80.3490   25.9440 C   0  0  0  0  0  0  0  0  0  0  0  0
   53.4510   80.7630   25.0060 N   0  0  0  0  0  0  0  0  0  0  0  0
   53.2610   79.8000   23.8950 C   0  0  0  0  0  0  0  0  0  0  0  0
   52.0020   80.1500   23.0780 C   0  0  0  0  0  0  0  0  0  0  0  0
   51.9570   81.5580   22.6620 N   0  0  0  0  0  0  0  0  0  0  0  0
   51.2240   82.0130   21.5740 C   0  0  0  0  0  0  0  0  0  0  0  0
   50.7660   80.9820   20.5740 C   0  0  0  0  0  0  0  0  0  0  0  0
   50.9620   83.2030   21.3990 O   0  0  0  0  0  0  0  0  0  0  0  0
   52.2490   82.5200   23.7320 C   0  0  0  0  0  0  0  0  0  0  0  0
   53.5150   82.1630   24.5280 C   0  0  0  0  0  0  0  0  0  0  0  0
   55.6410   81.0270   26.0140 C   0  0  0  0  0  0  0  0  0  0  0  0
   56.6500   80.6510   26.9130 C   0  0  0  0  0  0  0  0  0  0  0  0
   56.4680   79.5770   27.7800 C   0  0  0  0  0  0  0  0  0  0  0  0
   57.4390   79.1620   28.7100 N   0  0  0  0  0  0  0  0  0  0  0  0
   58.2280   79.8570   29.6390 C   0  0  0  0  0  0  0  0  0  0  0  0
   59.2890   80.6420   29.1640 C   0  0  0  0  0  0  0  0  0  0  0  0
   60.0850   81.3900   30.0370 C   0  0  0  0  0  0  0  0  0  0  0  0
   59.8260   81.3680   31.4040 C   0  0  0  0  0  0  0  0  0  0  0  0
   58.7710   80.6020   31.8930 C   0  0  0  0  0  0  0  0  0  0  0  0
   57.9770   79.8570   31.0150 C   0  0  0  0  0  0  0  0  0  0  0  0
   53.2521   77.1694   29.3852 H   0  0  0  0  0  0  0  0  0  0  0  0
   53.1050   78.0720   27.8391 H   0  0  0  0  0  0  0  0  0  0  0  0
   53.7222   76.3850   27.8391 H   0  0  0  0  0  0  0  0  0  0  0  0
   53.3064   78.6791   26.7665 H   0  0  0  0  0  0  0  0  0  0  0  0
   54.1402   79.8328   23.2348 H   0  0  0  0  0  0  0  0  0  0  0  0
   53.1381   78.7922   24.3185 H   0  0  0  0  0  0  0  0  0  0  0  0
   51.9823   79.5183   22.1777 H   0  0  0  0  0  0  0  0  0  0  0  0
   51.1310   79.9718   23.7258 H   0  0  0  0  0  0  0  0  0  0  0  0
   50.3753   80.1026   21.1069 H   0  0  0  0  0  0  0  0  0  0  0  0
   49.9734   81.4102   19.9427 H   0  0  0  0  0  0  0  0  0  0  0  0
   51.6150   80.6810   19.9427 H   0  0  0  0  0  0  0  0  0  0  0  0
   52.3859   83.5145   23.2822 H   0  0  0  0  0  0  0  0  0  0  0  0
   51.4017   82.5012   24.4333 H   0  0  0  0  0  0  0  0  0  0  0  0
   54.3958   82.2842   23.8803 H   0  0  0  0  0  0  0  0  0  0  0  0
   53.5882   82.8323   25.3978 H   0  0  0  0  0  0  0  0  0  0  0  0
   55.8174   81.8800   25.3422 H   0  0  0  0  0  0  0  0  0  0  0  0
   57.5963   81.2114   26.9332 H   0  0  0  0  0  0  0  0  0  0  0  0
   57.4350   78.1520   28.8340 H   0  0  0  0  0  0  0  0  0  0  0  0
   59.4988   80.6697   28.0845 H   0  0  0  0  0  0  0  0  0  0  0  0
   60.9150   81.9952   29.6435 H   0  0  0  0  0  0  0  0  0  0  0  0
   60.4514   81.9526   32.0947 H   0  0  0  0  0  0  0  0  0  0  0  0
   58.5615   80.5827   32.9727 H   0  0  0  0  0  0  0  0  0  0  0  0
   57.1420   79.2617   31.4129 H   0  0  0  0  0  0  0  0  0  0  0  0
  1  2  1  0
  2  3  1  0
  3  4  1  0
  4  5  2  0
  5  6  1  0
  6  7  1  0
  7  8  1  0
  8  9  1  0
  9 10  1  0
 10 11  1  0
 10 12  2  0
  9 13  1  0
 13 14  1  0
  5 15  1  0
 15 16  2  0
 16 17  1  0
 17 18  1  0
 18 19  1  0
 19 20  2  0
 20 21  1  0
 21 22  2  0
 22 23  1  0
 23 24  2  0
 17  3  2  0
 24 19  1  0
 14  6  1  0
  1 25  1  0
  1 26  1  0
  1 27  1  0
  4 28  1  0
  7 29  1  0
  7 30  1  0
  8 31  1  0
  8 32  1  0
 11 33  1  0
 11 34  1  0
 11 35  1  0
 13 36  1  0
 13 37  1  0
 14 38  1  0
 14 39  1  0
 15 40  1  0
 16 41  1  0
 18 42  1  0
 20 43  1  0
 21 44  1  0
 22 45  1  0
 23 46  1  0
 24 47  1  0
M  END
>  <meeko>  (1) 
{"is_sidechain": false}

>  <smiles>  (1) 
COc1cc(N2CCN(C(C)=O)CC2)ccc1Nc1ccccc1

>  <vina_score>  (1) 
-8.026

>  <job_id>  (1) 
45b8a9f6923397b1

$$$$
