
     RDKit          3D

 42 45  0  0  0  0  0  0  0  0999 V2000
   53.2990   77.9820   25.1850 N   0  0  0  0  0  0  0  0  0  0  0  0
   53.0170   78.6110   26.7210 S   0  0  0  0  0  0  0  0  0  0  0  0
   52.2490   79.8170   26.5140 O   0  0  0  0  0  0  0  0  0  0  0  0
   52.5640   77.5350   27.5690 O   0  0  0  0  0  0  0  0  0  0  0  0
   54.6570   79.0660   27.2220 C   0  0  0  0  0  0  0  0  0  0  0  0
   55.2960   78.3580   28.2440 C   0  0  0  0  0  0  0  0  0  0  0  0
   56.5860   78.7270   28.6290 C   0  0  0  0  0  0  0  0  0  0  0  0
   57.2400   79.7960   28.0030 C   0  0  0  0  0  0  0  0  0  0  0  0
   58.5440   80.1430   28.3960 N   0  0  0  0  0  0  0  0  0  0  0  0
   58.5440   81.2850   28.8970 N   0  0  0  0  0  0  0  0  0  0  0  0
   60.0740   81.7370   29.4010 S   0  0  0  0  0  0  0  0  0  0  0  0
   59.6590   82.6300   30.8590 C   0  0  0  0  0  0  0  0  0  0  0  0
   59.1530   83.7460   30.8490 O   0  0  0  0  0  0  0  0  0  0  0  0
   60.0170   81.9380   32.0960 C   0  0  0  0  0  0  0  0  0  0  0  0
   59.0130   81.3040   32.9920 C   0  0  0  0  0  0  0  0  0  0  0  0
   57.8100   81.2630   32.8210 O   0  0  0  0  0  0  0  0  0  0  0  0
   59.7090   80.7820   34.0570 N   0  0  0  0  0  0  0  0  0  0  0  0
   61.0290   81.0350   33.9210 C   0  0  0  0  0  0  0  0  0  0  0  0
   62.0320   80.7090   34.7410 C   0  0  0  0  0  0  0  0  0  0  0  0
   63.3930   81.0870   34.3900 C   0  0  0  0  0  0  0  0  0  0  0  0
   63.6990   81.7510   33.2520 C   0  0  0  0  0  0  0  0  0  0  0  0
   64.9880   82.1070   32.8950 N   0  0  0  0  0  0  0  0  0  0  0  0
   65.2810   82.7610   31.7260 C   0  0  0  0  0  0  0  0  0  0  0  0
   64.3260   83.1020   30.8510 C   0  0  0  0  0  0  0  0  0  0  0  0
   62.9420   82.7710   31.1540 C   0  0  0  0  0  0  0  0  0  0  0  0
   62.5940   82.1320   32.2960 C   0  0  0  0  0  0  0  0  0  0  0  0
   61.2230   81.7640   32.6760 C   0  0  0  0  0  0  0  0  0  0  0  0
   56.5950   80.4780   26.9610 C   0  0  0  0  0  0  0  0  0  0  0  0
   55.3040   80.1180   26.5680 C   0  0  0  0  0  0  0  0  0  0  0  0
   53.2980   76.9610   25.2400 H   0  0  0  0  0  0  0  0  0  0  0  0
   52.6460   78.3250   24.4800 H   0  0  0  0  0  0  0  0  0  0  0  0
   54.7872   77.5183   28.7400 H   0  0  0  0  0  0  0  0  0  0  0  0
   57.0941   78.1728   29.4320 H   0  0  0  0  0  0  0  0  0  0  0  0
   59.2660   80.3010   34.8250 H   0  0  0  0  0  0  0  0  0  0  0  0
   61.8311   80.1600   35.6728 H   0  0  0  0  0  0  0  0  0  0  0  0
   64.2077   80.8213   35.0797 H   0  0  0  0  0  0  0  0  0  0  0  0
   65.7470   81.8660   33.5200 H   0  0  0  0  0  0  0  0  0  0  0  0
   66.3280   83.0122   31.5009 H   0  0  0  0  0  0  0  0  0  0  0  0
   64.5840   83.6242   29.9178 H   0  0  0  0  0  0  0  0  0  0  0  0
   62.1564   83.0475   30.4354 H   0  0  0  0  0  0  0  0  0  0  0  0
   57.1104   81.3038   26.4487 H   0  0  0  0  0  0  0  0  0  0  0  0
   54.8014   80.6573   25.7516 H   0  0  0  0  0  0  0  0  0  0  0  0
  1  2  1  0
  2  3  2  0
  2  4  2  0
  2  5  1  0
  5  6  1  0
  6  7  2  0
  7  8  1  0
  8  9  1  0
  9 10  2  3
 10 11  1  0
 11 12  1  0
 12 13  2  0
 12 14  1  0
 14 15  1  0
 15 16  2  0
 15 17  1  0
 17 18  1  0
 18 19  2  0
 19 20  1  0
 20 21  2  0
 21 22  1  0
 22 23  1  0
 23 24  2  0
 24 25  1  0
 25 26  2  0
 26 27  1  0
  8 28  2  0
 28 29  1  0
 29  5  2  0
 27 14  2  0
 27 18  1  0
 26 21  1  0
  1 30  1  0
  1 31  1  0
  6 32  1  0
  7 33  1  0
 17 34  1  0
 19 35  1  0
 20 36  1  0
 22 37  1  0
 23 38  1  0
 24 39  1  0
 25 40  1  0
 28 41  1  0
 29 42  1  0
M  END
>  <meeko>  (1) 
{"is_sidechain": false}

>  <smiles>  (1) 
NS(=O)(=O)c1ccc(N=NSC(=O)c2c(=O)[nH]c3ccc4[nH]cccc4c23)cc1

>  <vina_score>  (1) 
-8.388

>  <job_id>  (1) 
45bbc9235c7e5bba

$$$$
