
     RDKit          3D

 70 73  0  0  0  0  0  0  0  0999 V2000
   66.6260   87.4360   28.4050 C   0  0  0  0  0  0  0  0  0  0  0  0
   65.9610   87.8740   29.6860 C   0  0  0  0  0  0  0  0  0  0  0  0
   64.8140   88.8250   29.4780 C   0  0  0  0  0  0  0  0  0  0  0  0
   66.4050   87.4070   30.8700 C   0  0  0  0  0  0  0  0  0  0  0  0
   65.8930   87.7340   32.1850 C   0  0  0  0  0  0  0  0  0  0  0  0
   64.8540   87.1470   32.8020 C   0  0  0  0  0  0  0  0  0  0  0  0
   64.0050   86.0810   32.2630 C   0  0  0  0  0  0  0  0  0  0  0  0
   62.8470   86.4130   31.5520 C   0  0  0  0  0  0  0  0  0  0  0  0
   62.0370   85.4070   31.0200 C   0  0  0  0  0  0  0  0  0  0  0  0
   62.3690   84.0630   31.1980 C   0  0  0  0  0  0  0  0  0  0  0  0
   61.5520   83.0620   30.6560 N   0  0  0  0  0  0  0  0  0  0  0  0
   60.5010   82.6520   31.3020 C   0  0  0  0  0  0  0  0  0  0  0  0
   60.0760   83.1450   32.5180 N   0  0  0  0  0  0  0  0  0  0  0  0
   59.6850   81.5640   30.6600 C   0  0  0  0  0  0  0  0  0  0  0  0
   58.9010   80.7200   31.4490 C   0  0  0  0  0  0  0  0  0  0  0  0
   58.1460   79.6960   30.8610 C   0  0  0  0  0  0  0  0  0  0  0  0
   58.1420   79.5010   29.4760 C   0  0  0  0  0  0  0  0  0  0  0  0
   57.4280   78.4850   28.8320 N   0  0  0  0  0  0  0  0  0  0  0  0
   56.0760   78.2470   28.6030 C   0  0  0  0  0  0  0  0  0  0  0  0
   55.3220   77.5320   29.4500 N   0  0  0  0  0  0  0  0  0  0  0  0
   54.0230   77.3720   29.1450 C   0  0  0  0  0  0  0  0  0  0  0  0
   53.4430   77.8900   28.0180 C   0  0  0  0  0  0  0  0  0  0  0  0
   54.2910   78.5930   27.1950 C   0  0  0  0  0  0  0  0  0  0  0  0
   53.8180   79.2190   25.9670 C   0  0  0  0  0  0  0  0  0  0  0  0
   53.3200   78.6200   24.8260 C   0  0  0  0  0  0  0  0  0  0  0  0
   52.9510   79.5430   23.8950 N   0  0  0  0  0  0  0  0  0  0  0  0
   53.1960   80.7200   24.4330 C   0  0  0  0  0  0  0  0  0  0  0  0
   52.8970   82.0040   23.7490 C   0  0  0  0  0  0  0  0  0  0  0  0
   53.7680   80.5810   25.6870 N   0  0  0  0  0  0  0  0  0  0  0  0
   54.2690   81.6410   26.5640 C   0  0  0  0  0  0  0  0  0  0  0  0
   55.5560   82.3130   26.0720 C   0  0  0  0  0  0  0  0  0  0  0  0
   53.1870   82.6680   26.8940 C   0  0  0  0  0  0  0  0  0  0  0  0
   55.5960   78.7830   27.4700 N   0  0  0  0  0  0  0  0  0  0  0  0
   58.9350   80.3590   28.6960 C   0  0  0  0  0  0  0  0  0  0  0  0
   59.6950   81.3830   29.2750 C   0  0  0  0  0  0  0  0  0  0  0  0
   63.5370   83.7330   31.8880 C   0  0  0  0  0  0  0  0  0  0  0  0
   64.3510   84.7350   32.4210 C   0  0  0  0  0  0  0  0  0  0  0  0
   67.5232   86.8450   28.6411 H   0  0  0  0  0  0  0  0  0  0  0  0
   65.9258   86.8217   27.8198 H   0  0  0  0  0  0  0  0  0  0  0  0
   66.9139   88.3218   27.8198 H   0  0  0  0  0  0  0  0  0  0  0  0
   64.4241   89.1483   30.4544 H   0  0  0  0  0  0  0  0  0  0  0  0
   65.1629   89.7024   28.9137 H   0  0  0  0  0  0  0  0  0  0  0  0
   64.0164   88.3196   28.9137 H   0  0  0  0  0  0  0  0  0  0  0  0
   67.2477   86.7009   30.8336 H   0  0  0  0  0  0  0  0  0  0  0  0
   66.4042   88.5406   32.7310 H   0  0  0  0  0  0  0  0  0  0  0  0
   64.6162   87.5029   33.8153 H   0  0  0  0  0  0  0  0  0  0  0  0
   62.5735   87.4691   31.4115 H   0  0  0  0  0  0  0  0  0  0  0  0
   61.1311   85.6758   30.4568 H   0  0  0  0  0  0  0  0  0  0  0  0
   60.5160   84.0200   32.7800 H   0  0  0  0  0  0  0  0  0  0  0  0
   59.0710   83.1870   32.6380 H   0  0  0  0  0  0  0  0  0  0  0  0
   58.8757   80.8597   32.5398 H   0  0  0  0  0  0  0  0  0  0  0  0
   57.5452   79.0331   31.5009 H   0  0  0  0  0  0  0  0  0  0  0  0
   57.9660   77.8110   28.3070 H   0  0  0  0  0  0  0  0  0  0  0  0
   53.3925   76.7945   29.8371 H   0  0  0  0  0  0  0  0  0  0  0  0
   52.3761   77.7536   27.7877 H   0  0  0  0  0  0  0  0  0  0  0  0
   53.2324   77.5324   24.6867 H   0  0  0  0  0  0  0  0  0  0  0  0
   52.7149   82.7862   24.5007 H   0  0  0  0  0  0  0  0  0  0  0  0
   53.7521   82.2921   23.1199 H   0  0  0  0  0  0  0  0  0  0  0  0
   52.0026   81.8847   23.1199 H   0  0  0  0  0  0  0  0  0  0  0  0
   54.5483   81.1289   27.4966 H   0  0  0  0  0  0  0  0  0  0  0  0
   56.1589   82.6278   26.9366 H   0  0  0  0  0  0  0  0  0  0  0  0
   56.1320   81.6006   25.4632 H   0  0  0  0  0  0  0  0  0  0  0  0
   55.3006   83.1929   25.4632 H   0  0  0  0  0  0  0  0  0  0  0  0
   53.0898   82.7603   27.9858 H   0  0  0  0  0  0  0  0  0  0  0  0
   53.4644   83.6430   26.4669 H   0  0  0  0  0  0  0  0  0  0  0  0
   52.2278   82.3401   26.4669 H   0  0  0  0  0  0  0  0  0  0  0  0
   58.9596   80.2234   27.6047 H   0  0  0  0  0  0  0  0  0  0  0  0
   60.3003   82.0453   28.6386 H   0  0  0  0  0  0  0  0  0  0  0  0
   63.8180   82.6768   32.0127 H   0  0  0  0  0  0  0  0  0  0  0  0
   65.2670   84.4648   32.9667 H   0  0  0  0  0  0  0  0  0  0  0  0
  1  2  1  0
  2  3  1  0
  2  4  2  3
  4  5  1  0
  5  6  2  3
  6  7  1  0
  7  8  1  0
  8  9  2  0
  9 10  1  0
 10 11  1  0
 11 12  2  3
 12 13  1  0
 12 14  1  0
 14 15  1  0
 15 16  2  0
 16 17  1  0
 17 18  1  0
 18 19  1  0
 19 20  2  0
 20 21  1  0
 21 22  2  0
 22 23  1  0
 23 24  1  0
 24 25  2  0
 25 26  1  0
 26 27  2  0
 27 28  1  0
 27 29  1  0
 29 30  1  0
 30 31  1  0
 30 32  1  0
 23 33  2  0
 17 34  2  0
 34 35  1  0
 10 36  2  0
 36 37  1  0
 37  7  2  0
 35 14  2  0
 33 19  1  0
 29 24  1  0
  1 38  1  0
  1 39  1  0
  1 40  1  0
  3 41  1  0
  3 42  1  0
  3 43  1  0
  4 44  1  0
  5 45  1  0
  6 46  1  0
  8 47  1  0
  9 48  1  0
 13 49  1  0
 13 50  1  0
 15 51  1  0
 16 52  1  0
 18 53  1  0
 21 54  1  0
 22 55  1  0
 25 56  1  0
 28 57  1  0
 28 58  1  0
 28 59  1  0
 30 60  1  0
 31 61  1  0
 31 62  1  0
 31 63  1  0
 32 64  1  0
 32 65  1  0
 32 66  1  0
 34 67  1  0
 35 68  1  0
 36 69  1  0
 37 70  1  0
M  END
>  <meeko>  (1) 
{"is_sidechain": false}

>  <smiles>  (1) 
CC(C)=CC=Cc1ccc(N=C(N)c2ccc(Nc3nccc(-c4cnc(C)n4C(C)C)n3)cc2)cc1

>  <vina_score>  (1) 
-8.279

>  <job_id>  (1) 
4600b713f05d0bdc

$$$$
