
     RDKit          3D

 37 38  0  0  0  0  0  0  0  0999 V2000
   59.7240   81.5370   29.1450 C   0  0  0  0  0  0  0  0  0  0  0  0
   59.6310   80.2460   29.7510 O   0  0  0  0  0  0  0  0  0  0  0  0
   58.3560   79.8500   30.0260 C   0  0  0  0  0  0  0  0  0  0  0  0
   57.8100   80.0330   31.1010 O   0  0  0  0  0  0  0  0  0  0  0  0
   57.8590   79.2540   28.9160 N   0  0  0  0  0  0  0  0  0  0  0  0
   56.6060   78.6980   28.7680 C   0  0  0  0  0  0  0  0  0  0  0  0
   56.1280   77.8070   29.6450 N   0  0  0  0  0  0  0  0  0  0  0  0
   54.8990   77.3080   29.4050 C   0  0  0  0  0  0  0  0  0  0  0  0
   54.1370   77.6740   28.3270 C   0  0  0  0  0  0  0  0  0  0  0  0
   52.9220   77.1480   28.1300 F   0  0  0  0  0  0  0  0  0  0  0  0
   54.7000   78.6100   27.4840 C   0  0  0  0  0  0  0  0  0  0  0  0
   54.0290   79.0770   26.2740 C   0  0  0  0  0  0  0  0  0  0  0  0
   53.4030   78.3320   25.2930 C   0  0  0  0  0  0  0  0  0  0  0  0
   52.9350   79.1190   24.2850 N   0  0  0  0  0  0  0  0  0  0  0  0
   53.2460   80.3550   24.6140 C   0  0  0  0  0  0  0  0  0  0  0  0
   52.9350   81.5270   23.7560 C   0  0  0  0  0  0  0  0  0  0  0  0
   53.8710   80.3930   25.8510 N   0  0  0  0  0  0  0  0  0  0  0  0
   54.2680   81.5810   26.6110 C   0  0  0  0  0  0  0  0  0  0  0  0
   55.4740   82.2840   25.9870 C   0  0  0  0  0  0  0  0  0  0  0  0
   53.1250   82.5620   26.8940 C   0  0  0  0  0  0  0  0  0  0  0  0
   55.9340   79.1280   27.6880 N   0  0  0  0  0  0  0  0  0  0  0  0
   59.7795   82.3068   29.9288 H   0  0  0  0  0  0  0  0  0  0  0  0
   60.6279   81.5844   28.5199 H   0  0  0  0  0  0  0  0  0  0  0  0
   58.8362   81.7134   28.5199 H   0  0  0  0  0  0  0  0  0  0  0  0
   58.4620   79.1910   28.1140 H   0  0  0  0  0  0  0  0  0  0  0  0
   54.4876   76.5703   30.1097 H   0  0  0  0  0  0  0  0  0  0  0  0
   53.2958   77.2376   25.3226 H   0  0  0  0  0  0  0  0  0  0  0  0
   52.7046   82.3953   24.3908 H   0  0  0  0  0  0  0  0  0  0  0  0
   53.8032   81.7572   23.1209 H   0  0  0  0  0  0  0  0  0  0  0  0
   52.0670   81.2964   23.1209 H   0  0  0  0  0  0  0  0  0  0  0  0
   54.5708   81.1973   27.5964 H   0  0  0  0  0  0  0  0  0  0  0  0
   56.1288   82.6657   26.7842 H   0  0  0  0  0  0  0  0  0  0  0  0
   56.0327   81.5701   25.3640 H   0  0  0  0  0  0  0  0  0  0  0  0
   55.1281   83.1219   25.3640 H   0  0  0  0  0  0  0  0  0  0  0  0
   52.9969   82.6720   27.9810 H   0  0  0  0  0  0  0  0  0  0  0  0
   53.3638   83.5406   26.4521 H   0  0  0  0  0  0  0  0  0  0  0  0
   52.1939   82.1775   26.4521 H   0  0  0  0  0  0  0  0  0  0  0  0
  1  2  1  0
  2  3  1  0
  3  4  2  0
  3  5  1  0
  5  6  1  0
  6  7  2  0
  7  8  1  0
  8  9  2  0
  9 10  1  0
  9 11  1  0
 11 12  1  0
 12 13  2  0
 13 14  1  0
 14 15  2  0
 15 16  1  0
 15 17  1  0
 17 18  1  0
 18 19  1  0
 18 20  1  0
 11 21  2  0
 21  6  1  0
 17 12  1  0
  1 22  1  0
  1 23  1  0
  1 24  1  0
  5 25  1  0
  8 26  1  0
 13 27  1  0
 16 28  1  0
 16 29  1  0
 16 30  1  0
 18 31  1  0
 19 32  1  0
 19 33  1  0
 19 34  1  0
 20 35  1  0
 20 36  1  0
 20 37  1  0
M  END
>  <meeko>  (1) 
{"is_sidechain": false}

>  <smiles>  (1) 
COC(=O)Nc1ncc(F)c(-c2cnc(C)n2C(C)C)n1

>  <vina_score>  (1) 
-7.447

>  <job_id>  (1) 
46071a9084ab416e

$$$$
