
     RDKit          3D

 64 66  0  0  0  0  0  0  0  0999 V2000
   64.1920   84.9380   29.7660 C   0  0  0  0  0  0  0  0  0  0  0  0
   65.4680   84.6820   30.0860 C   0  0  0  0  0  0  0  0  0  0  0  0
   66.4390   85.7890   30.3990 C   0  0  0  0  0  0  0  0  0  0  0  0
   65.9680   83.4100   29.9860 N   0  0  0  0  0  0  0  0  0  0  0  0
   65.9660   82.6210   31.0170 C   0  0  0  0  0  0  0  0  0  0  0  0
   65.3090   82.9220   32.6120 S   0  0  0  0  0  0  0  0  0  0  0  0
   63.4090   82.1020   32.4910 S   0  0  0  0  0  4  0  0  0  0  0  0
   63.1580   81.7320   30.8380 N   0  0  0  0  0  0  0  0  0  0  0  0
   62.1340   83.2240   33.0670 C   0  0  0  0  0  0  0  0  0  0  0  0
   62.6150   84.2380   33.5800 O   0  0  0  0  0  0  0  0  0  0  0  0
   60.6350   83.1030   33.0060 C   0  0  0  0  0  0  0  0  0  0  0  0
   60.0790   83.2290   31.6160 C   0  0  0  0  0  0  0  0  0  0  0  0
   60.1340   84.3060   31.0210 O   0  0  0  0  0  0  0  0  0  0  0  0
   59.4560   82.0440   30.9510 C   0  0  0  0  0  0  0  0  0  0  0  0
   58.9730   80.9430   31.6600 C   0  0  0  0  0  0  0  0  0  0  0  0
   58.4050   79.8610   30.9730 C   0  0  0  0  0  0  0  0  0  0  0  0
   58.3060   79.8430   29.5720 C   0  0  0  0  0  0  0  0  0  0  0  0
   57.7200   78.7320   28.9580 N   0  0  0  0  0  0  0  0  0  0  0  0
   56.4070   78.3240   28.7450 C   0  0  0  0  0  0  0  0  0  0  0  0
   55.7760   77.4840   29.5800 N   0  0  0  0  0  0  0  0  0  0  0  0
   54.4960   77.1660   29.2930 C   0  0  0  0  0  0  0  0  0  0  0  0
   53.8280   77.6490   28.2010 C   0  0  0  0  0  0  0  0  0  0  0  0
   52.5560   77.3030   27.9610 F   0  0  0  0  0  0  0  0  0  0  0  0
   54.5500   78.4880   27.3830 C   0  0  0  0  0  0  0  0  0  0  0  0
   53.9730   79.1090   26.1930 C   0  0  0  0  0  0  0  0  0  0  0  0
   53.4210   78.4990   25.0820 C   0  0  0  0  0  0  0  0  0  0  0  0
   52.9350   79.4120   24.1970 N   0  0  0  0  0  0  0  0  0  0  0  0
   53.1780   80.5940   24.7240 C   0  0  0  0  0  0  0  0  0  0  0  0
   52.7730   81.8690   24.0790 C   0  0  0  0  0  0  0  0  0  0  0  0
   53.8600   80.4690   25.9230 N   0  0  0  0  0  0  0  0  0  0  0  0
   54.4070   81.5450   26.7530 C   0  0  0  0  0  0  0  0  0  0  0  0
   53.3140   82.4810   27.2700 C   0  0  0  0  0  0  0  0  0  0  0  0
   55.5560   82.3220   26.1050 C   0  0  0  0  0  0  0  0  0  0  0  0
   55.8310   78.8370   27.6440 N   0  0  0  0  0  0  0  0  0  0  0  0
   58.7910   80.9550   28.8790 C   0  0  0  0  0  0  0  0  0  0  0  0
   59.3600   82.0420   29.5570 C   0  0  0  0  0  0  0  0  0  0  0  0
   63.5043   84.1093   29.5419 H   0  0  0  0  0  0  0  0  0  0  0  0
   63.8324   85.9769   29.7274 H   0  0  0  0  0  0  0  0  0  0  0  0
   66.5333   85.8965   31.4897 H   0  0  0  0  0  0  0  0  0  0  0  0
   67.4218   85.5474   29.9680 H   0  0  0  0  0  0  0  0  0  0  0  0
   66.0714   86.7319   29.9680 H   0  0  0  0  0  0  0  0  0  0  0  0
   66.4372   81.6380   30.8698 H   0  0  0  0  0  0  0  0  0  0  0  0
   63.3500   80.9640   33.2230 H   0  0  0  0  0  0  0  0  0  0  0  0
   62.5660   80.9040   30.7540 H   0  0  0  0  0  0  0  0  0  0  0  0
   62.6370   82.4840   30.3840 H   0  0  0  0  0  0  0  0  0  0  0  0
   60.3486   82.1198   33.4076 H   0  0  0  0  0  0  0  0  0  0  0  0
   60.2194   83.9326   33.5968 H   0  0  0  0  0  0  0  0  0  0  0  0
   59.0380   80.9243   32.7579 H   0  0  0  0  0  0  0  0  0  0  0  0
   58.0264   79.0024   31.5470 H   0  0  0  0  0  0  0  0  0  0  0  0
   58.3420   78.0880   28.4910 H   0  0  0  0  0  0  0  0  0  0  0  0
   53.9628   76.4839   29.9715 H   0  0  0  0  0  0  0  0  0  0  0  0
   53.3796   77.4101   24.9317 H   0  0  0  0  0  0  0  0  0  0  0  0
   52.5367   82.6131   24.8539 H   0  0  0  0  0  0  0  0  0  0  0  0
   53.5972   82.2411   23.4527 H   0  0  0  0  0  0  0  0  0  0  0  0
   51.8852   81.6972   23.4527 H   0  0  0  0  0  0  0  0  0  0  0  0
   54.8551   81.0339   27.6179 H   0  0  0  0  0  0  0  0  0  0  0  0
   53.3182   82.4774   28.3700 H   0  0  0  0  0  0  0  0  0  0  0  0
   53.5029   83.5017   26.9060 H   0  0  0  0  0  0  0  0  0  0  0  0
   52.3345   82.1373   26.9060 H   0  0  0  0  0  0  0  0  0  0  0  0
   56.1948   82.7540   26.8894 H   0  0  0  0  0  0  0  0  0  0  0  0
   56.1525   81.6411   25.4800 H   0  0  0  0  0  0  0  0  0  0  0  0
   55.1463   83.1291   25.4800 H   0  0  0  0  0  0  0  0  0  0  0  0
   58.7251   80.9779   27.7812 H   0  0  0  0  0  0  0  0  0  0  0  0
   59.7353   82.9034   28.9850 H   0  0  0  0  0  0  0  0  0  0  0  0
  1  2  2  0
  2  3  1  0
  2  4  1  0
  4  5  2  3
  5  6  1  0
  6  7  1  0
  7  8  1  0
  7  9  1  0
  9 10  2  0
  9 11  1  0
 11 12  1  0
 12 13  2  0
 12 14  1  0
 14 15  1  0
 15 16  2  0
 16 17  1  0
 17 18  1  0
 18 19  1  0
 19 20  2  0
 20 21  1  0
 21 22  2  0
 22 23  1  0
 22 24  1  0
 24 25  1  0
 25 26  2  0
 26 27  1  0
 27 28  2  0
 28 29  1  0
 28 30  1  0
 30 31  1  0
 31 32  1  0
 31 33  1  0
 24 34  2  0
 17 35  2  0
 35 36  1  0
 36 14  2  0
 34 19  1  0
 30 25  1  0
  1 37  1  0
  1 38  1  0
  3 39  1  0
  3 40  1  0
  3 41  1  0
  5 42  1  0
  7 43  1  0
  8 44  1  0
  8 45  1  0
 11 46  1  0
 11 47  1  0
 15 48  1  0
 16 49  1  0
 18 50  1  0
 21 51  1  0
 26 52  1  0
 29 53  1  0
 29 54  1  0
 29 55  1  0
 31 56  1  0
 32 57  1  0
 32 58  1  0
 32 59  1  0
 33 60  1  0
 33 61  1  0
 33 62  1  0
 35 63  1  0
 36 64  1  0
M  END
>  <meeko>  (1) 
{"is_sidechain": false}

>  <smiles>  (1) 
C=C(C)N=CS[SH](N)C(=O)CC(=O)c1ccc(Nc2ncc(F)c(-c3cnc(C)n3C(C)C)n2)cc1

>  <vina_score>  (1) 
-8.464

>  <job_id>  (1) 
461327005f8ee8e8

$$$$
