
     RDKit          3D

 55 57  0  0  0  0  0  0  0  0999 V2000
   62.9780   82.4820   31.0660 C   0  0  0  0  0  0  0  0  0  0  0  0
   63.0270   83.6870   31.9870 C   0  0  0  0  0  0  0  0  0  0  0  0
   62.4320   83.3700   33.2500 O   0  0  0  0  0  0  0  0  0  0  0  0
   61.1130   83.6650   33.3740 C   0  0  0  0  0  0  0  0  0  0  0  0
   60.5370   84.5540   32.7630 O   0  0  0  0  0  0  0  0  0  0  0  0
   60.4810   82.8430   34.2960 N   0  0  0  0  0  0  0  0  0  0  0  0
   59.9940   81.4590   33.8230 S   0  0  0  0  0  0  0  0  0  0  0  0
   59.4840   80.5980   35.3020 C   0  0  0  0  0  0  0  0  0  0  0  0
   60.8350   80.5480   33.0690 O   0  0  0  0  0  0  0  0  0  0  0  0
   58.4700   81.7280   32.8980 C   0  0  0  0  0  0  0  0  0  0  0  0
   58.6480   81.3890   31.4410 C   0  0  0  0  0  0  0  0  0  0  0  0
   59.3890   82.2180   30.5940 C   0  0  0  0  0  0  0  0  0  0  0  0
   59.5520   81.8800   29.2530 C   0  0  0  0  0  0  0  0  0  0  0  0
   58.9680   80.7180   28.7420 C   0  0  0  0  0  0  0  0  0  0  0  0
   58.1990   79.8780   29.5500 C   0  0  0  0  0  0  0  0  0  0  0  0
   57.6060   78.6910   29.1060 N   0  0  0  0  0  0  0  0  0  0  0  0
   56.2920   78.2890   28.8850 C   0  0  0  0  0  0  0  0  0  0  0  0
   55.6430   77.4730   29.7300 N   0  0  0  0  0  0  0  0  0  0  0  0
   54.3690   77.1540   29.4250 C   0  0  0  0  0  0  0  0  0  0  0  0
   53.7200   77.6130   28.3100 C   0  0  0  0  0  0  0  0  0  0  0  0
   52.4390   77.2920   28.0810 F   0  0  0  0  0  0  0  0  0  0  0  0
   54.4510   78.4380   27.4810 C   0  0  0  0  0  0  0  0  0  0  0  0
   53.9020   79.0280   26.2480 C   0  0  0  0  0  0  0  0  0  0  0  0
   53.8110   78.2280   25.0880 C   0  0  0  0  0  0  0  0  0  0  0  0
   53.3090   78.7430   23.8940 C   0  0  0  0  0  0  0  0  0  0  0  0
   52.8840   80.0610   23.8520 C   0  0  0  0  0  0  0  0  0  0  0  0
   52.3990   80.5600   22.7070 F   0  0  0  0  0  0  0  0  0  0  0  0
   52.9450   80.8760   24.9770 C   0  0  0  0  0  0  0  0  0  0  0  0
   53.4480   80.3680   26.1810 C   0  0  0  0  0  0  0  0  0  0  0  0
   53.5070   81.0880   27.3500 O   0  0  0  0  0  0  0  0  0  0  0  0
   53.3110   82.4930   27.2720 C   0  0  0  0  0  0  0  0  0  0  0  0
   55.7310   78.7950   27.7720 N   0  0  0  0  0  0  0  0  0  0  0  0
   58.0570   80.2300   30.9040 C   0  0  0  0  0  0  0  0  0  0  0  0
   62.9406   81.5619   31.6677 H   0  0  0  0  0  0  0  0  0  0  0  0
   62.0815   82.5418   30.4313 H   0  0  0  0  0  0  0  0  0  0  0  0
   63.8764   82.4688   30.4313 H   0  0  0  0  0  0  0  0  0  0  0  0
   64.0751   83.9822   32.1432 H   0  0  0  0  0  0  0  0  0  0  0  0
   62.4680   84.5141   31.5250 H   0  0  0  0  0  0  0  0  0  0  0  0
   59.8170   81.1602   36.1869 H   0  0  0  0  0  0  0  0  0  0  0  0
   58.3877   80.5094   35.3151 H   0  0  0  0  0  0  0  0  0  0  0  0
   59.9332   79.5940   35.3151 H   0  0  0  0  0  0  0  0  0  0  0  0
   57.6777   81.0922   33.3198 H   0  0  0  0  0  0  0  0  0  0  0  0
   58.1986   82.7911   32.9769 H   0  0  0  0  0  0  0  0  0  0  0  0
   59.8441   83.1389   30.9874 H   0  0  0  0  0  0  0  0  0  0  0  0
   60.1435   82.5311   28.5926 H   0  0  0  0  0  0  0  0  0  0  0  0
   59.1169   80.4601   27.6831 H   0  0  0  0  0  0  0  0  0  0  0  0
   58.2060   77.8850   29.0160 H   0  0  0  0  0  0  0  0  0  0  0  0
   53.8213   76.4890   30.1089 H   0  0  0  0  0  0  0  0  0  0  0  0
   54.1422   77.1798   25.1273 H   0  0  0  0  0  0  0  0  0  0  0  0
   53.2510   78.1106   22.9959 H   0  0  0  0  0  0  0  0  0  0  0  0
   52.5985   81.9185   24.9212 H   0  0  0  0  0  0  0  0  0  0  0  0
   53.2526   82.9120   28.2874 H   0  0  0  0  0  0  0  0  0  0  0  0
   54.1539   82.9515   26.7341 H   0  0  0  0  0  0  0  0  0  0  0  0
   52.3748   82.7033   26.7341 H   0  0  0  0  0  0  0  0  0  0  0  0
   57.4653   79.5790   31.5643 H   0  0  0  0  0  0  0  0  0  0  0  0
  1  2  1  0
  2  3  1  0
  3  4  1  0
  4  5  2  0
  4  6  1  0
  6  7  2  0
  7  8  1  0
  7  9  2  0
  7 10  1  0
 10 11  1  0
 11 12  2  0
 12 13  1  0
 13 14  2  0
 14 15  1  0
 15 16  1  0
 16 17  1  0
 17 18  2  0
 18 19  1  0
 19 20  2  0
 20 21  1  0
 20 22  1  0
 22 23  1  0
 23 24  1  0
 24 25  2  0
 25 26  1  0
 26 27  1  0
 26 28  2  0
 28 29  1  0
 29 30  1  0
 30 31  1  0
 22 32  2  0
 15 33  2  0
 33 11  1  0
 32 17  1  0
 29 23  2  0
  1 34  1  0
  1 35  1  0
  1 36  1  0
  2 37  1  0
  2 38  1  0
  8 39  1  0
  8 40  1  0
  8 41  1  0
 10 42  1  0
 10 43  1  0
 12 44  1  0
 13 45  1  0
 14 46  1  0
 16 47  1  0
 19 48  1  0
 24 49  1  0
 25 50  1  0
 28 51  1  0
 31 52  1  0
 31 53  1  0
 31 54  1  0
 33 55  1  0
M  END
>  <meeko>  (1) 
{"is_sidechain": false}

>  <smiles>  (1) 
CCOC(=O)N=S(C)(=O)Cc1cccc(Nc2ncc(F)c(-c3ccc(F)cc3OC)n2)c1

>  <vina_score>  (1) 
-8.296

>  <job_id>  (1) 
4649f4ebd7acf749

$$$$
