
     RDKit          3D

 54 56  0  0  0  0  0  0  0  0999 V2000
   53.7720   76.5480   28.5980 C   0  0  0  0  0  0  0  0  0  0  0  0
   52.9530   77.1550   27.4590 C   0  0  0  0  0  0  0  0  0  0  0  0
   52.5730   76.0850   26.4400 C   0  0  0  0  0  0  0  0  0  0  0  0
   53.6910   78.2250   26.7990 N   0  0  0  0  0  0  0  0  0  0  0  0
   53.0580   79.3700   26.3880 C   0  0  0  0  0  0  0  0  0  0  0  0
   51.8440   79.5240   26.5130 O   0  0  0  0  0  0  0  0  0  0  0  0
   53.8840   80.3270   25.8140 N   0  0  0  0  0  0  0  0  0  0  0  0
   53.4480   81.6490   25.3480 C   0  0  0  0  0  0  0  0  0  0  0  0
   53.3330   82.6670   26.4850 C   0  0  0  0  0  0  0  0  0  0  0  0
   54.6570   83.3310   26.9080 C   0  0  0  0  0  0  0  0  0  0  0  0
   55.9530   82.7800   26.3100 C   0  0  0  0  0  0  0  0  0  0  0  0
   56.4980   81.5920   27.0560 C   0  0  0  0  0  0  0  0  0  0  0  0
   57.3530   81.8900   28.0700 N   0  0  0  0  0  0  0  0  0  0  0  0
   57.9220   80.8810   28.7770 C   0  0  0  0  0  0  0  0  0  0  0  0
   58.8310   81.2980   29.8680 C   0  0  0  0  0  0  0  0  0  0  0  0
   59.9820   82.0750   29.6320 C   0  0  0  0  0  0  0  0  0  0  0  0
   60.8300   82.4610   30.6770 C   0  0  0  0  0  0  0  0  0  0  0  0
   60.5350   82.0720   31.9840 C   0  0  0  0  0  0  0  0  0  0  0  0
   61.6130   82.5580   33.3030 S   0  0  0  0  0  0  0  0  0  0  0  0
   60.5960   82.4080   34.6380 N   0  0  0  0  0  0  0  0  0  0  0  0
   61.9350   83.9560   33.1440 O   0  0  0  0  0  0  0  0  0  0  0  0
   62.6250   81.5390   33.4710 O   0  0  0  0  0  0  0  0  0  0  0  0
   59.4180   81.2840   32.2520 C   0  0  0  0  0  0  0  0  0  0  0  0
   58.5780   80.9060   31.2000 C   0  0  0  0  0  0  0  0  0  0  0  0
   57.6660   79.5500   28.4640 C   0  0  0  0  0  0  0  0  0  0  0  0
   56.7960   79.2520   27.4190 C   0  0  0  0  0  0  0  0  0  0  0  0
   56.1800   80.2800   26.6970 C   0  0  0  0  0  0  0  0  0  0  0  0
   55.2650   79.9380   25.5480 C   0  0  0  0  0  0  0  0  0  0  0  0
   53.3476   76.8625   29.5629 H   0  0  0  0  0  0  0  0  0  0  0  0
   53.7441   75.4507   28.5254 H   0  0  0  0  0  0  0  0  0  0  0  0
   54.8137   76.8939   28.5254 H   0  0  0  0  0  0  0  0  0  0  0  0
   52.0349   77.5770   27.8938 H   0  0  0  0  0  0  0  0  0  0  0  0
   52.2499   75.1751   26.9670 H   0  0  0  0  0  0  0  0  0  0  0  0
   51.7512   76.4548   25.8092 H   0  0  0  0  0  0  0  0  0  0  0  0
   53.4439   75.8536   25.8092 H   0  0  0  0  0  0  0  0  0  0  0  0
   54.6360   78.3570   27.1220 H   0  0  0  0  0  0  0  0  0  0  0  0
   54.1777   82.0219   24.6141 H   0  0  0  0  0  0  0  0  0  0  0  0
   52.4484   81.5321   24.9040 H   0  0  0  0  0  0  0  0  0  0  0  0
   52.6423   83.4602   26.1629 H   0  0  0  0  0  0  0  0  0  0  0  0
   52.9794   82.1056   27.3624 H   0  0  0  0  0  0  0  0  0  0  0  0
   54.5940   84.3940   26.6321 H   0  0  0  0  0  0  0  0  0  0  0  0
   54.7390   83.1251   27.9854 H   0  0  0  0  0  0  0  0  0  0  0  0
   55.7568   82.4788   25.2704 H   0  0  0  0  0  0  0  0  0  0  0  0
   56.7065   83.5787   26.3765 H   0  0  0  0  0  0  0  0  0  0  0  0
   60.2198   82.3854   28.6038 H   0  0  0  0  0  0  0  0  0  0  0  0
   61.7238   83.0675   30.4688 H   0  0  0  0  0  0  0  0  0  0  0  0
   61.1480   82.0920   35.4360 H   0  0  0  0  0  0  0  0  0  0  0  0
   59.7950   81.8030   34.4660 H   0  0  0  0  0  0  0  0  0  0  0  0
   59.1990   80.9623   33.2809 H   0  0  0  0  0  0  0  0  0  0  0  0
   57.6956   80.2860   31.4166 H   0  0  0  0  0  0  0  0  0  0  0  0
   58.1457   78.7420   29.0359 H   0  0  0  0  0  0  0  0  0  0  0  0
   56.5917   78.2027   27.1595 H   0  0  0  0  0  0  0  0  0  0  0  0
   55.6147   80.4635   24.6471 H   0  0  0  0  0  0  0  0  0  0  0  0
   55.2895   78.8473   25.4074 H   0  0  0  0  0  0  0  0  0  0  0  0
  1  2  1  0
  2  3  1  0
  2  4  1  0
  4  5  1  0
  5  6  2  0
  5  7  1  0
  7  8  1  0
  8  9  1  0
  9 10  1  0
 10 11  1  0
 11 12  1  0
 12 13  1  0
 13 14  2  0
 14 15  1  0
 15 16  1  0
 16 17  2  0
 17 18  1  0
 18 19  1  0
 19 20  1  0
 19 21  2  0
 19 22  2  0
 18 23  2  0
 23 24  1  0
 14 25  1  0
 25 26  2  0
 26 27  1  0
 27 28  1  0
 28  7  1  0
 27 12  2  0
 24 15  2  0
  1 29  1  0
  1 30  1  0
  1 31  1  0
  2 32  1  0
  3 33  1  0
  3 34  1  0
  3 35  1  0
  4 36  1  0
  8 37  1  0
  8 38  1  0
  9 39  1  0
  9 40  1  0
 10 41  1  0
 10 42  1  0
 11 43  1  0
 11 44  1  0
 16 45  1  0
 17 46  1  0
 20 47  1  0
 20 48  1  0
 23 49  1  0
 24 50  1  0
 25 51  1  0
 26 52  1  0
 28 53  1  0
 28 54  1  0
M  END
>  <meeko>  (1) 
{"is_sidechain": false}

>  <smiles>  (1) 
CC(C)NC(=O)N1CCCCc2nc(-c3ccc(S(N)(=O)=O)cc3)ccc2C1

>  <vina_score>  (1) 
-5.516

>  <job_id>  (1) 
46b03488f99995c3

$$$$
