
     RDKit          3D

 49 51  0  0  0  0  0  0  0  0999 V2000
   52.1150   81.2330   22.4370 C   0  0  0  0  0  0  0  0  0  0  0  0
   52.5920   82.0020   23.6440 C   0  0  0  0  0  0  0  0  0  0  0  0
   52.5600   83.2320   23.6470 O   0  0  0  0  0  0  0  0  0  0  0  0
   53.0530   81.2600   24.7230 N   0  0  0  0  0  0  0  0  0  0  0  0
   53.0140   79.8000   24.7940 C   0  0  0  0  0  0  0  0  0  0  0  0
   52.9350   79.3030   26.2340 C   0  0  0  0  0  0  0  0  0  0  0  0
   54.1040   79.8060   27.1040 C   0  0  0  0  0  0  0  0  0  0  0  0
   55.2080   78.7320   27.2150 C   0  0  0  0  0  0  0  0  0  0  0  0
   56.3360   79.1150   28.1430 C   0  0  0  0  0  0  0  0  0  0  0  0
   56.3100   78.7390   29.4900 C   0  0  0  0  0  0  0  0  0  0  0  0
   57.3540   79.1010   30.3470 C   0  0  0  0  0  0  0  0  0  0  0  0
   58.4440   79.8430   29.8750 C   0  0  0  0  0  0  0  0  0  0  0  0
   59.4510   80.1750   30.8060 N   0  0  0  0  0  0  0  0  0  0  0  0
   59.3310   80.9890   31.9180 C   0  0  0  0  0  0  0  0  0  0  0  0
   58.3460   81.6310   32.2580 O   0  0  0  0  0  0  0  0  0  0  0  0
   60.5680   81.1050   32.7400 C   0  0  0  0  0  0  0  0  0  0  0  0
   60.8120   80.1380   33.7230 C   0  0  0  0  0  0  0  0  0  0  0  0
   61.9590   80.2160   34.5130 C   0  0  0  0  0  0  0  0  0  0  0  0
   62.8700   81.2530   34.3180 C   0  0  0  0  0  0  0  0  0  0  0  0
   62.6430   82.2090   33.3260 C   0  0  0  0  0  0  0  0  0  0  0  0
   61.4950   82.1360   32.5340 C   0  0  0  0  0  0  0  0  0  0  0  0
   58.4670   80.2200   28.5330 C   0  0  0  0  0  0  0  0  0  0  0  0
   57.4230   79.8580   27.6730 C   0  0  0  0  0  0  0  0  0  0  0  0
   54.6670   81.1450   26.5840 C   0  0  0  0  0  0  0  0  0  0  0  0
   53.6020   81.9730   25.8750 C   0  0  0  0  0  0  0  0  0  0  0  0
   51.5617   80.3409   22.7657 H   0  0  0  0  0  0  0  0  0  0  0  0
   51.4545   81.8721   21.8326 H   0  0  0  0  0  0  0  0  0  0  0  0
   52.9810   80.9252   21.8326 H   0  0  0  0  0  0  0  0  0  0  0  0
   52.1313   79.4406   24.2447 H   0  0  0  0  0  0  0  0  0  0  0  0
   53.9424   79.4119   24.3496 H   0  0  0  0  0  0  0  0  0  0  0  0
   51.9911   79.6547   26.6760 H   0  0  0  0  0  0  0  0  0  0  0  0
   52.9892   78.2046   26.2089 H   0  0  0  0  0  0  0  0  0  0  0  0
   53.7123   79.9935   28.1146 H   0  0  0  0  0  0  0  0  0  0  0  0
   54.7523   77.8026   27.5873 H   0  0  0  0  0  0  0  0  0  0  0  0
   55.6432   78.6133   26.2117 H   0  0  0  0  0  0  0  0  0  0  0  0
   55.4626   78.1546   29.8778 H   0  0  0  0  0  0  0  0  0  0  0  0
   57.3187   78.7994   31.4043 H   0  0  0  0  0  0  0  0  0  0  0  0
   60.3760   79.8290   30.5890 H   0  0  0  0  0  0  0  0  0  0  0  0
   60.0976   79.3150   33.8725 H   0  0  0  0  0  0  0  0  0  0  0  0
   62.1446   79.4594   35.2896 H   0  0  0  0  0  0  0  0  0  0  0  0
   63.7699   81.3183   34.9472 H   0  0  0  0  0  0  0  0  0  0  0  0
   63.3689   83.0203   33.1682 H   0  0  0  0  0  0  0  0  0  0  0  0
   61.3185   82.8866   31.7495 H   0  0  0  0  0  0  0  0  0  0  0  0
   59.3130   80.8072   28.1463 H   0  0  0  0  0  0  0  0  0  0  0  0
   57.4585   80.1615   26.6163 H   0  0  0  0  0  0  0  0  0  0  0  0
   55.0568   81.7215   27.4359 H   0  0  0  0  0  0  0  0  0  0  0  0
   55.4631   80.9211   25.8587 H   0  0  0  0  0  0  0  0  0  0  0  0
   52.7882   82.1910   26.5823 H   0  0  0  0  0  0  0  0  0  0  0  0
   54.0673   82.9034   25.5174 H   0  0  0  0  0  0  0  0  0  0  0  0
  1  2  1  0
  2  3  2  0
  2  4  1  0
  4  5  1  0
  5  6  1  0
  6  7  1  0
  7  8  1  0
  8  9  1  0
  9 10  1  0
 10 11  2  0
 11 12  1  0
 12 13  1  0
 13 14  1  0
 14 15  2  0
 14 16  1  0
 16 17  2  0
 17 18  1  0
 18 19  2  0
 19 20  1  0
 20 21  2  0
 12 22  2  0
 22 23  1  0
  7 24  1  0
 24 25  1  0
 25  4  1  0
 23  9  2  0
 21 16  1  0
  1 26  1  0
  1 27  1  0
  1 28  1  0
  5 29  1  0
  5 30  1  0
  6 31  1  0
  6 32  1  0
  7 33  1  0
  8 34  1  0
  8 35  1  0
 10 36  1  0
 11 37  1  0
 13 38  1  0
 17 39  1  0
 18 40  1  0
 19 41  1  0
 20 42  1  0
 21 43  1  0
 22 44  1  0
 23 45  1  0
 24 46  1  0
 24 47  1  0
 25 48  1  0
 25 49  1  0
M  END
>  <meeko>  (1) 
{"is_sidechain": false}

>  <smiles>  (1) 
CC(=O)N1CCC(Cc2ccc(NC(=O)c3ccccc3)cc2)CC1

>  <vina_score>  (1) 
-8.444

>  <job_id>  (1) 
46b19b54d9afa153

$$$$
