
     RDKit          3D

 36 39  0  0  0  0  0  0  0  0999 V2000
   56.7220   78.5490   29.5300 N   0  0  0  0  0  0  0  0  0  0  0  0
   57.8530   79.5340   28.7740 S   0  0  0  0  0  0  0  0  0  0  0  0
   58.9870   78.6860   28.4860 O   0  0  0  0  0  0  0  0  0  0  0  0
   57.1360   80.2460   27.7430 O   0  0  0  0  0  0  0  0  0  0  0  0
   58.2800   80.6590   30.0690 C   0  0  0  0  0  0  0  0  0  0  0  0
   58.8600   81.8910   29.7550 C   0  0  0  0  0  0  0  0  0  0  0  0
   59.1760   82.7840   30.7820 C   0  0  0  0  0  0  0  0  0  0  0  0
   58.9300   82.4510   32.1220 C   0  0  0  0  0  0  0  0  0  0  0  0
   59.2290   83.3710   33.1470 N   0  0  0  0  0  0  0  0  0  0  0  0
   60.3420   83.3160   33.7340 N   0  0  0  0  0  0  0  0  0  0  0  0
   61.3840   82.5120   33.2540 C   0  0  0  0  0  0  0  0  0  0  0  0
   61.5440   81.1710   33.5500 C   0  0  0  0  0  0  0  0  0  0  0  0
   60.8310   80.3320   34.2920 O   0  0  0  0  0  0  0  0  0  0  0  0
   62.6780   80.7270   32.9140 N   0  0  0  0  0  0  0  0  0  0  0  0
   63.2230   81.7330   32.1520 C   0  0  0  0  0  0  0  0  0  0  0  0
   64.3360   81.7970   31.3080 C   0  0  0  0  0  0  0  0  0  0  0  0
   64.5900   83.0260   30.6450 C   0  0  0  0  0  0  0  0  0  0  0  0
   63.7460   84.1480   30.8160 C   0  0  0  0  0  0  0  0  0  0  0  0
   63.8490   85.3990   30.2320 N   0  0  0  0  0  0  0  0  0  0  0  0
   62.8410   86.1440   30.6450 C   0  0  0  0  0  0  0  0  0  0  0  0
   61.7420   85.4010   31.7420 S   0  0  0  0  0  0  0  0  0  0  0  0
   62.6620   84.0150   31.6670 C   0  0  0  0  0  0  0  0  0  0  0  0
   62.4100   82.8430   32.3310 C   0  0  0  0  0  0  0  0  0  0  0  0
   58.3060   81.2310   32.4130 C   0  0  0  0  0  0  0  0  0  0  0  0
   57.9860   80.3300   31.3940 C   0  0  0  0  0  0  0  0  0  0  0  0
   56.3520   77.8720   28.8620 H   0  0  0  0  0  0  0  0  0  0  0  0
   57.1350   78.1240   30.3600 H   0  0  0  0  0  0  0  0  0  0  0  0
   59.0662   82.1556   28.7074 H   0  0  0  0  0  0  0  0  0  0  0  0
   59.6226   83.7589   30.5369 H   0  0  0  0  0  0  0  0  0  0  0  0
   61.2580   80.3220   35.1710 H   0  0  0  0  0  0  0  0  0  0  0  0
   63.0280   79.7820   32.9770 H   0  0  0  0  0  0  0  0  0  0  0  0
   64.9915   80.9257   31.1630 H   0  0  0  0  0  0  0  0  0  0  0  0
   65.4642   83.1078   29.9823 H   0  0  0  0  0  0  0  0  0  0  0  0
   62.7103   87.1825   30.3069 H   0  0  0  0  0  0  0  0  0  0  0  0
   58.0650   80.9793   33.4563 H   0  0  0  0  0  0  0  0  0  0  0  0
   57.5064   79.3695   31.6335 H   0  0  0  0  0  0  0  0  0  0  0  0
  1  2  1  0
  2  3  2  0
  2  4  2  0
  2  5  1  0
  5  6  1  0
  6  7  2  0
  7  8  1  0
  8  9  1  0
  9 10  2  3
 10 11  1  0
 11 12  2  0
 12 13  1  0
 12 14  1  0
 14 15  1  0
 15 16  2  0
 16 17  1  0
 17 18  2  0
 18 19  1  0
 19 20  2  0
 20 21  1  0
 21 22  1  0
 22 23  2  0
  8 24  2  0
 24 25  1  0
 25  5  2  0
 23 11  1  0
 23 15  1  0
 22 18  1  0
  1 26  1  0
  1 27  1  0
  6 28  1  0
  7 29  1  0
 13 30  1  0
 14 31  1  0
 16 32  1  0
 17 33  1  0
 20 34  1  0
 24 35  1  0
 25 36  1  0
M  END
>  <meeko>  (1) 
{"is_sidechain": false}

>  <smiles>  (1) 
NS(=O)(=O)c1ccc(N=Nc2c(O)[nH]c3ccc4ncsc4c23)cc1

>  <vina_score>  (1) 
-5.888

>  <job_id>  (1) 
46b5fa24730e79b4

$$$$
