
     RDKit          3D

 63 65  0  0  0  0  0  0  0  0999 V2000
   60.1710   80.6080   35.3260 C   0  0  0  0  0  0  0  0  0  0  0  0
   60.6450   81.0550   33.9410 C   0  0  1  0  0  0  0  0  0  0  0  0
   59.5100   81.7320   33.2730 N   0  0  0  0  0  0  0  0  0  0  0  0
   59.4820   81.6150   31.8660 C   0  0  0  0  0  0  0  0  0  0  0  0
   58.9420   80.5140   31.3070 N   0  0  0  0  0  0  0  0  0  0  0  0
   58.8890   80.4200   29.9680 C   0  0  0  0  0  0  0  0  0  0  0  0
   58.3410   79.2320   29.4910 N   0  0  0  0  0  0  0  0  0  0  0  0
   57.1350   78.8960   28.8710 C   0  0  0  0  0  0  0  0  0  0  0  0
   56.7550   79.6070   27.7180 C   0  0  0  0  0  0  0  0  0  0  0  0
   55.5520   79.3390   27.0560 C   0  0  0  0  0  0  0  0  0  0  0  0
   54.7020   78.3540   27.5570 C   0  0  0  0  0  0  0  0  0  0  0  0
   53.1720   77.9950   26.7310 S   0  0  0  0  0  0  0  0  0  0  0  0
   52.2070   79.0060   27.1240 O   0  0  0  0  0  0  0  0  0  0  0  0
   53.4810   77.7930   25.3250 O   0  0  0  0  0  0  0  0  0  0  0  0
   52.6780   76.3820   27.4070 C   0  0  1  0  0  0  0  0  0  0  0  0
   51.4180   76.4820   28.2500 C   0  0  0  0  0  0  0  0  0  0  0  0
   52.4660   75.3550   26.4120 O   0  0  0  0  0  0  0  0  0  0  0  0
   55.0620   77.6200   28.6860 C   0  0  0  0  0  0  0  0  0  0  0  0
   56.2670   77.9010   29.3380 C   0  0  0  0  0  0  0  0  0  0  0  0
   59.3370   81.3780   29.1460 N   0  0  0  0  0  0  0  0  0  0  0  0
   59.8540   82.4810   29.7200 C   0  0  0  0  0  0  0  0  0  0  0  0
   59.9510   82.6570   31.0790 C   0  0  0  0  0  0  0  0  0  0  0  0
   60.7070   84.2390   31.7800 Br  0  0  0  0  0  0  0  0  0  0  0  0
   61.8460   81.9900   34.1100 C   0  0  0  0  0  0  0  0  0  0  0  0
   61.7400   83.0120   34.9800 N   0  0  0  0  0  0  0  0  0  0  0  0
   62.8220   83.8060   35.0890 C   0  0  0  0  0  0  0  0  0  0  0  0
   63.9790   83.6290   34.3610 C   0  0  0  0  0  0  0  0  0  0  0  0
   65.4310   84.8140   34.6010 Br  0  0  0  0  0  0  0  0  0  0  0  0
   63.9970   82.5680   33.4610 C   0  0  0  0  0  0  0  0  0  0  0  0
   65.1590   82.3000   32.7200 N   0  0  0  0  0  0  0  0  0  0  0  0
   65.0510   82.2890   31.2510 C   0  0  2  0  0  0  0  0  0  0  0  0
   66.3710   81.8150   30.6460 C   0  0  0  0  0  0  0  0  0  0  0  0
   64.6910   83.7310   30.7940 C   0  0  1  0  0  0  0  0  0  0  0  0
   65.9010   84.6460   30.6540 C   0  0  0  0  0  0  0  0  0  0  0  0
   64.0260   83.6650   29.5200 O   0  0  0  0  0  0  0  0  0  0  0  0
   62.9340   81.7500   33.3350 N   0  0  0  0  0  0  0  0  0  0  0  0
   60.7402   81.1448   36.0992 H   0  0  0  0  0  0  0  0  0  0  0  0
   59.0999   80.8324   35.4371 H   0  0  0  0  0  0  0  0  0  0  0  0
   60.3323   79.5256   35.4371 H   0  0  0  0  0  0  0  0  0  0  0  0
   60.9653   80.2039   33.3221 H   0  0  0  0  0  0  0  0  0  0  0  0
   59.5500   82.7280   33.4960 H   0  0  0  0  0  0  0  0  0  0  0  0
   58.9840   78.4790   29.6910 H   0  0  0  0  0  0  0  0  0  0  0  0
   57.4194   80.3921   27.3278 H   0  0  0  0  0  0  0  0  0  0  0  0
   55.2796   79.8996   26.1496 H   0  0  0  0  0  0  0  0  0  0  0  0
   53.5385   76.0851   28.0246 H   0  0  0  0  0  0  0  0  0  0  0  0
   51.6876   76.4606   29.3162 H   0  0  0  0  0  0  0  0  0  0  0  0
   50.8981   77.4242   28.0221 H   0  0  0  0  0  0  0  0  0  0  0  0
   50.7560   75.6336   28.0221 H   0  0  0  0  0  0  0  0  0  0  0  0
   51.7150   75.6580   25.8650 H   0  0  0  0  0  0  0  0  0  0  0  0
   54.4021   76.8243   29.0620 H   0  0  0  0  0  0  0  0  0  0  0  0
   56.5388   77.3282   30.2369 H   0  0  0  0  0  0  0  0  0  0  0  0
   60.2188   83.2855   29.0645 H   0  0  0  0  0  0  0  0  0  0  0  0
   62.7802   84.6443   35.8000 H   0  0  0  0  0  0  0  0  0  0  0  0
   65.9070   82.9300   33.0220 H   0  0  0  0  0  0  0  0  0  0  0  0
   64.2677   81.5961   30.9100 H   0  0  0  0  0  0  0  0  0  0  0  0
   67.0745   81.5624   31.4530 H   0  0  0  0  0  0  0  0  0  0  0  0
   66.1910   80.9253   30.0246 H   0  0  0  0  0  0  0  0  0  0  0  0
   66.7981   82.6159   30.0246 H   0  0  0  0  0  0  0  0  0  0  0  0
   64.0460   84.1575   31.5764 H   0  0  0  0  0  0  0  0  0  0  0  0
   66.2682   84.9237   31.6530 H   0  0  0  0  0  0  0  0  0  0  0  0
   66.6959   84.1211   30.1040 H   0  0  0  0  0  0  0  0  0  0  0  0
   65.6125   85.5539   30.1040 H   0  0  0  0  0  0  0  0  0  0  0  0
   63.0690   83.6080   29.6900 H   0  0  0  0  0  0  0  0  0  0  0  0
  1  2  1  0
  2  3  1  0
  3  4  1  0
  4  5  2  0
  5  6  1  0
  6  7  1  0
  7  8  1  0
  8  9  1  0
  9 10  2  0
 10 11  1  0
 11 12  1  0
 12 13  2  0
 12 14  2  0
 12 15  1  0
 15 16  1  0
 15 17  1  0
 11 18  2  0
 18 19  1  0
  6 20  2  0
 20 21  1  0
 21 22  2  0
 22 23  1  0
  2 24  1  0
 24 25  2  0
 25 26  1  0
 26 27  2  0
 27 28  1  0
 27 29  1  0
 29 30  1  0
 30 31  1  0
 31 32  1  0
 31 33  1  0
 33 34  1  0
 33 35  1  0
 29 36  2  0
 22  4  1  0
 36 24  1  0
 19  8  2  0
  1 37  1  0
  1 38  1  0
  1 39  1  0
  2 40  1  6
  3 41  1  0
  7 42  1  0
  9 43  1  0
 10 44  1  0
 15 45  1  1
 16 46  1  0
 16 47  1  0
 16 48  1  0
 17 49  1  0
 18 50  1  0
 19 51  1  0
 21 52  1  0
 26 53  1  0
 30 54  1  0
 31 55  1  1
 32 56  1  0
 32 57  1  0
 32 58  1  0
 33 59  1  1
 34 60  1  0
 34 61  1  0
 34 62  1  0
 35 63  1  0
M  END
>  <meeko>  (1) 
{"is_sidechain": false}

>  <smiles>  (1) 
C[C@@H](Nc1nc(Nc2ccc(S(=O)(=O)[C@@H](C)O)cc2)ncc1Br)c1ncc(Br)c(N[C@H](C)[C@@H](C)O)n1

>  <vina_score>  (1) 
-7.265

>  <job_id>  (1) 
46d8f3ff45bc14cd

$$$$
