
     RDKit          3D

 60 62  0  0  0  0  0  0  0  0999 V2000
   52.8670   75.9860   27.5030 C   0  0  0  0  0  0  0  0  0  0  0  0
   53.2630   77.2530   27.7080 C   0  0  0  0  0  0  0  0  0  0  0  0
   53.6930   77.6070   29.0530 C   0  0  0  0  0  0  0  0  0  0  0  0
   54.9520   77.6210   29.5200 C   0  0  0  0  0  0  0  0  0  0  0  0
   56.2050   77.2640   28.7760 C   0  0  0  0  0  0  0  0  0  0  0  0
   56.8180   78.4850   28.2760 N   0  0  0  0  0  0  0  0  0  0  0  0
   57.6490   79.2930   29.0470 C   0  0  0  0  0  0  0  0  0  0  0  0
   57.6090   79.3510   30.4420 C   0  0  0  0  0  0  0  0  0  0  0  0
   58.4310   80.2330   31.1620 C   0  0  0  0  0  0  0  0  0  0  0  0
   59.3120   81.1130   30.5130 C   0  0  0  0  0  0  0  0  0  0  0  0
   60.1900   82.0450   31.2520 C   0  0  0  0  0  0  0  0  0  0  0  0
   61.3870   82.5130   30.7420 C   0  0  0  0  0  0  0  0  0  0  0  0
   62.1090   83.3770   31.5400 C   0  0  0  0  0  0  0  0  0  0  0  0
   63.4160   83.9340   31.0640 C   0  0  0  0  0  0  0  0  0  0  0  0
   61.6800   83.7590   32.7570 N   0  0  0  0  0  0  0  0  0  0  0  0
   60.5020   83.2800   33.1610 C   0  0  0  0  0  0  0  0  0  0  0  0
   60.0600   83.6520   34.4130 N   0  0  0  0  0  0  0  0  0  0  0  0
   59.7440   82.4310   32.4680 N   0  0  0  0  0  0  0  0  0  0  0  0
   59.3110   81.0850   29.1100 C   0  0  0  0  0  0  0  0  0  0  0  0
   58.4890   80.2030   28.3950 C   0  0  0  0  0  0  0  0  0  0  0  0
   53.3270   78.2440   26.7250 N   0  0  0  0  0  0  0  0  0  0  0  0
   53.3100   77.9060   25.2800 C   0  0  0  0  0  0  0  0  0  0  0  0
   53.8020   79.0630   24.3950 C   0  0  0  0  0  0  0  0  0  0  0  0
   53.0070   80.2700   24.6290 N   0  0  0  0  0  0  0  0  0  0  0  0
   52.1800   80.8550   23.6790 C   0  0  0  0  0  0  0  0  0  0  0  0
   52.8260   81.3570   22.4120 C   0  0  0  0  0  0  0  0  0  0  0  0
   50.9660   80.9820   23.8400 O   0  0  0  0  0  0  0  0  0  0  0  0
   52.8200   80.6320   26.0490 C   0  0  0  0  0  0  0  0  0  0  0  0
   53.2890   82.0670   26.3200 C   0  0  0  0  0  0  0  0  0  0  0  0
   53.5540   79.6760   27.0320 C   0  0  0  0  0  0  0  0  0  0  0  0
   52.5329   75.6690   26.5041 H   0  0  0  0  0  0  0  0  0  0  0  0
   52.8768   75.2654   28.3341 H   0  0  0  0  0  0  0  0  0  0  0  0
   52.9025   77.8935   29.7623 H   0  0  0  0  0  0  0  0  0  0  0  0
   55.0792   77.9296   30.5681 H   0  0  0  0  0  0  0  0  0  0  0  0
   56.9033   76.7503   29.4532 H   0  0  0  0  0  0  0  0  0  0  0  0
   55.9632   76.5963   27.9359 H   0  0  0  0  0  0  0  0  0  0  0  0
   57.1470   78.3770   27.3220 H   0  0  0  0  0  0  0  0  0  0  0  0
   56.9187   78.6915   30.9884 H   0  0  0  0  0  0  0  0  0  0  0  0
   58.3836   80.2346   32.2610 H   0  0  0  0  0  0  0  0  0  0  0  0
   61.7467   82.2110   29.7473 H   0  0  0  0  0  0  0  0  0  0  0  0
   64.0389   84.1995   31.9309 H   0  0  0  0  0  0  0  0  0  0  0  0
   63.9364   83.1795   30.4558 H   0  0  0  0  0  0  0  0  0  0  0  0
   63.2322   84.8320   30.4558 H   0  0  0  0  0  0  0  0  0  0  0  0
   60.7880   84.1710   34.8840 H   0  0  0  0  0  0  0  0  0  0  0  0
   59.6830   82.8450   34.8880 H   0  0  0  0  0  0  0  0  0  0  0  0
   59.9706   81.7711   28.5585 H   0  0  0  0  0  0  0  0  0  0  0  0
   58.5045   80.2266   27.2954 H   0  0  0  0  0  0  0  0  0  0  0  0
   53.9609   77.0348   25.1145 H   0  0  0  0  0  0  0  0  0  0  0  0
   52.2676   77.6934   25.0004 H   0  0  0  0  0  0  0  0  0  0  0  0
   54.8557   79.2739   24.6298 H   0  0  0  0  0  0  0  0  0  0  0  0
   53.6964   78.7699   23.3400 H   0  0  0  0  0  0  0  0  0  0  0  0
   53.6710   82.0136   22.6665 H   0  0  0  0  0  0  0  0  0  0  0  0
   53.1902   80.5026   21.8227 H   0  0  0  0  0  0  0  0  0  0  0  0
   52.0880   81.9209   21.8227 H   0  0  0  0  0  0  0  0  0  0  0  0
   51.7390   80.5413   26.2313 H   0  0  0  0  0  0  0  0  0  0  0  0
   53.3442   82.2359   27.4056 H   0  0  0  0  0  0  0  0  0  0  0  0
   54.2833   82.2181   25.8744 H   0  0  0  0  0  0  0  0  0  0  0  0
   52.5759   82.7761   25.8744 H   0  0  0  0  0  0  0  0  0  0  0  0
   54.6337   79.8792   26.9780 H   0  0  0  0  0  0  0  0  0  0  0  0
   53.1504   79.8649   28.0377 H   0  0  0  0  0  0  0  0  0  0  0  0
  1  2  2  0
  2  3  1  0
  3  4  2  3
  4  5  1  0
  5  6  1  0
  6  7  1  0
  7  8  1  0
  8  9  2  0
  9 10  1  0
 10 11  1  0
 11 12  2  0
 12 13  1  0
 13 14  1  0
 13 15  2  0
 15 16  1  0
 16 17  1  0
 16 18  2  0
 10 19  2  0
 19 20  1  0
  2 21  1  0
 21 22  1  0
 22 23  1  0
 23 24  1  0
 24 25  1  0
 25 26  1  0
 25 27  2  0
 24 28  1  0
 28 29  1  0
 28 30  1  0
 20  7  2  0
 30 21  1  0
 18 11  1  0
  1 31  1  0
  1 32  1  0
  3 33  1  0
  4 34  1  0
  5 35  1  0
  5 36  1  0
  6 37  1  0
  8 38  1  0
  9 39  1  0
 12 40  1  0
 14 41  1  0
 14 42  1  0
 14 43  1  0
 17 44  1  0
 17 45  1  0
 19 46  1  0
 20 47  1  0
 22 48  1  0
 22 49  1  0
 23 50  1  0
 23 51  1  0
 26 52  1  0
 26 53  1  0
 26 54  1  0
 28 55  1  0
 29 56  1  0
 29 57  1  0
 29 58  1  0
 30 59  1  0
 30 60  1  0
M  END
>  <meeko>  (1) 
{"is_sidechain": false}

>  <smiles>  (1) 
C=C(C=CCNc1ccc(-c2cc(C)nc(N)n2)cc1)N1CCN(C(C)=O)C(C)C1

>  <vina_score>  (1) 
-8.654

>  <job_id>  (1) 
47bc51042bf8eed6

$$$$
