
     RDKit          3D

 36 38  0  0  0  0  0  0  0  0999 V2000
   49.5430   81.3570   22.2620 N   0  0  0  0  0  0  0  0  0  0  0  0
   51.0660   81.7220   21.6430 S   0  0  0  0  0  0  0  0  0  0  0  0
   51.1060   83.1620   21.5350 O   0  0  0  0  0  0  0  0  0  0  0  0
   51.3120   80.8490   20.5200 O   0  0  0  0  0  0  0  0  0  0  0  0
   52.1180   81.2280   22.9820 C   0  0  0  0  0  0  0  0  0  0  0  0
   52.4680   79.8830   23.1170 C   0  0  0  0  0  0  0  0  0  0  0  0
   53.2990   79.4910   24.1700 C   0  0  0  0  0  0  0  0  0  0  0  0
   53.7970   80.4310   25.0910 C   0  0  0  0  0  0  0  0  0  0  0  0
   54.6750   80.0150   26.1960 C   0  0  0  0  0  0  0  0  0  0  0  0
   54.2740   79.0160   27.1010 C   0  0  0  0  0  0  0  0  0  0  0  0
   55.1060   78.6170   28.1520 C   0  0  0  0  0  0  0  0  0  0  0  0
   56.3600   79.2040   28.3010 C   0  0  0  0  0  0  0  0  0  0  0  0
   57.1320   78.8150   29.3670 O   0  0  0  0  0  0  0  0  0  0  0  0
   57.9880   79.6300   29.8650 C   0  0  0  0  0  0  0  0  0  0  0  0
   59.1300   80.2540   29.4950 C   0  0  0  0  0  0  0  0  0  0  0  0
   59.3130   80.9660   30.8080 C   0  0  0  0  0  0  0  0  0  0  0  0
   58.0480   80.2320   31.2680 C   0  0  0  0  0  0  0  0  0  0  0  0
   56.7710   80.2120   27.4320 C   0  0  0  0  0  0  0  0  0  0  0  0
   55.9360   80.6080   26.3830 C   0  0  0  0  0  0  0  0  0  0  0  0
   53.4380   81.7810   24.9220 C   0  0  0  0  0  0  0  0  0  0  0  0
   52.6060   82.1830   23.8740 C   0  0  0  0  0  0  0  0  0  0  0  0
   48.7830   81.8090   21.7540 H   0  0  0  0  0  0  0  0  0  0  0  0
   49.4340   80.3420   22.2890 H   0  0  0  0  0  0  0  0  0  0  0  0
   52.0926   79.1379   22.4002 H   0  0  0  0  0  0  0  0  0  0  0  0
   53.5682   78.4302   24.2806 H   0  0  0  0  0  0  0  0  0  0  0  0
   53.2895   78.5405   26.9802 H   0  0  0  0  0  0  0  0  0  0  0  0
   54.7712   77.8427   28.8580 H   0  0  0  0  0  0  0  0  0  0  0  0
   59.7166   80.2443   28.5645 H   0  0  0  0  0  0  0  0  0  0  0  0
   60.2287   80.6994   31.3561 H   0  0  0  0  0  0  0  0  0  0  0  0
   59.4175   82.0589   30.8759 H   0  0  0  0  0  0  0  0  0  0  0  0
   58.2061   79.5029   32.0763 H   0  0  0  0  0  0  0  0  0  0  0  0
   57.1935   80.7634   31.7124 H   0  0  0  0  0  0  0  0  0  0  0  0
   57.7495   80.6949   27.5707 H   0  0  0  0  0  0  0  0  0  0  0  0
   56.2710   81.3963   25.6928 H   0  0  0  0  0  0  0  0  0  0  0  0
   53.8193   82.5336   25.6278 H   0  0  0  0  0  0  0  0  0  0  0  0
   52.3382   83.2431   23.7534 H   0  0  0  0  0  0  0  0  0  0  0  0
  1  2  1  0
  2  3  2  0
  2  4  2  0
  2  5  1  0
  5  6  1  0
  6  7  2  0
  7  8  1  0
  8  9  1  0
  9 10  1  0
 10 11  2  0
 11 12  1  0
 12 13  1  0
 13 14  1  0
 14 15  2  0
 15 16  1  0
 16 17  1  0
 12 18  2  0
 18 19  1  0
  8 20  2  0
 20 21  1  0
 21  5  2  0
 19  9  2  0
 17 14  1  0
  1 22  1  0
  1 23  1  0
  6 24  1  0
  7 25  1  0
 10 26  1  0
 11 27  1  0
 15 28  1  0
 16 29  1  0
 16 30  1  0
 17 31  1  0
 17 32  1  0
 18 33  1  0
 19 34  1  0
 20 35  1  0
 21 36  1  0
M  END
>  <meeko>  (1) 
{"is_sidechain": false}

>  <smiles>  (1) 
NS(=O)(=O)c1ccc(-c2ccc(OC3=CCC3)cc2)cc1

>  <vina_score>  (1) 
-8.309

>  <job_id>  (1) 
488fbc2d8d5e71ee

$$$$
