
     RDKit          3D

 54 57  0  0  0  0  0  0  0  0999 V2000
   66.0520   82.0560   31.0200 C   0  0  0  0  0  0  0  0  0  0  0  0
   65.0440   82.8170   30.3530 O   0  0  0  0  0  0  0  0  0  0  0  0
   64.7490   83.9950   30.9580 C   0  0  0  0  0  0  0  0  0  0  0  0
   65.5580   84.8440   31.2980 O   0  0  0  0  0  0  0  0  0  0  0  0
   63.2830   84.1180   31.1860 C   0  0  0  0  0  0  0  0  0  0  0  0
   62.6590   85.3170   30.8180 C   0  0  0  0  0  0  0  0  0  0  0  0
   61.2890   85.5180   31.0200 C   0  0  0  0  0  0  0  0  0  0  0  0
   60.5640   84.4780   31.6120 C   0  0  0  0  0  0  0  0  0  0  0  0
   59.2250   84.4000   31.9340 N   0  0  0  0  0  0  0  0  0  0  0  0
   58.9320   83.1850   32.5060 C   0  0  0  0  0  0  0  0  0  0  0  0
   57.7040   82.8550   32.8950 O   0  0  0  0  0  0  0  0  0  0  0  0
   60.1160   82.4850   32.5700 C   0  0  0  0  0  0  0  0  0  0  0  0
   60.2440   81.1810   33.0700 N   0  0  0  0  0  0  0  0  0  0  0  0
   59.6690   80.2260   32.4900 N   0  0  0  0  0  0  0  0  0  0  0  0
   59.0100   80.5240   31.3010 N   0  0  0  0  0  0  0  0  0  0  0  0
   58.7820   79.4700   30.6740 N   0  0  0  0  0  0  0  0  0  0  0  0
   58.0100   79.7640   29.5400 C   0  0  0  0  0  0  0  0  0  0  0  0
   56.9980   78.8980   29.1120 C   0  0  0  0  0  0  0  0  0  0  0  0
   56.2300   79.2080   27.9860 C   0  0  0  0  0  0  0  0  0  0  0  0
   56.4620   80.3890   27.2690 C   0  0  0  0  0  0  0  0  0  0  0  0
   55.6850   80.7320   26.1480 N   0  0  0  0  0  0  0  0  0  0  0  0
   54.4910   80.4070   26.3350 N   0  0  0  0  0  0  0  0  0  0  0  0
   53.7170   80.7370   25.2090 C   0  0  0  0  0  0  0  0  0  0  0  0
   53.3450   82.0620   24.9400 C   0  0  0  0  0  0  0  0  0  0  0  0
   52.5540   82.3690   23.8310 C   0  0  0  0  0  0  0  0  0  0  0  0
   52.1290   81.3400   22.9860 C   0  0  0  0  0  0  0  0  0  0  0  0
   51.1170   81.7320   21.5830 S   0  0  0  0  0  0  0  0  0  0  0  0
   49.5810   81.3570   22.1600 N   0  0  0  0  0  0  0  0  0  0  0  0
   51.1250   83.1650   21.3980 O   0  0  0  0  0  0  0  0  0  0  0  0
   51.4350   80.8090   20.5210 O   0  0  0  0  0  0  0  0  0  0  0  0
   52.4690   80.0110   23.2520 C   0  0  0  0  0  0  0  0  0  0  0  0
   53.2610   79.7160   24.3640 C   0  0  0  0  0  0  0  0  0  0  0  0
   57.4560   81.2660   27.7130 C   0  0  0  0  0  0  0  0  0  0  0  0
   58.2240   80.9570   28.8400 C   0  0  0  0  0  0  0  0  0  0  0  0
   61.1510   83.2690   31.9890 C   0  0  0  0  0  0  0  0  0  0  0  0
   62.5310   83.0820   31.7620 C   0  0  0  0  0  0  0  0  0  0  0  0
   65.9242   82.1525   32.1083 H   0  0  0  0  0  0  0  0  0  0  0  0
   65.9629   80.9979   30.7327 H   0  0  0  0  0  0  0  0  0  0  0  0
   67.0452   82.4315   30.7327 H   0  0  0  0  0  0  0  0  0  0  0  0
   63.2588   86.1176   30.3605 H   0  0  0  0  0  0  0  0  0  0  0  0
   60.8004   86.4582   30.7245 H   0  0  0  0  0  0  0  0  0  0  0  0
   58.5610   85.1400   31.7620 H   0  0  0  0  0  0  0  0  0  0  0  0
   57.2690   83.6080   33.3240 H   0  0  0  0  0  0  0  0  0  0  0  0
   56.8054   77.9670   29.6653 H   0  0  0  0  0  0  0  0  0  0  0  0
   55.4369   78.5190   27.6602 H   0  0  0  0  0  0  0  0  0  0  0  0
   53.6798   82.8679   25.6096 H   0  0  0  0  0  0  0  0  0  0  0  0
   52.2681   83.4109   23.6243 H   0  0  0  0  0  0  0  0  0  0  0  0
   49.2890   80.4620   21.7640 H   0  0  0  0  0  0  0  0  0  0  0  0
   48.8930   82.0900   21.9910 H   0  0  0  0  0  0  0  0  0  0  0  0
   52.1163   79.2048   22.5919 H   0  0  0  0  0  0  0  0  0  0  0  0
   53.5297   78.6712   24.5789 H   0  0  0  0  0  0  0  0  0  0  0  0
   57.6354   82.2066   27.1716 H   0  0  0  0  0  0  0  0  0  0  0  0
   59.0021   81.6567   29.1789 H   0  0  0  0  0  0  0  0  0  0  0  0
   63.0138   82.1318   32.0343 H   0  0  0  0  0  0  0  0  0  0  0  0
  1  2  1  0
  2  3  1  0
  3  4  2  0
  3  5  1  0
  5  6  2  0
  6  7  1  0
  7  8  2  0
  8  9  1  0
  9 10  1  0
 10 11  1  0
 10 12  2  0
 12 13  1  0
 13 14  2  3
 14 15  1  0
 15 16  2  3
 16 17  1  0
 17 18  1  0
 18 19  2  0
 19 20  1  0
 20 21  1  0
 21 22  2  3
 22 23  1  0
 23 24  1  0
 24 25  2  0
 25 26  1  0
 26 27  1  0
 27 28  1  0
 27 29  2  0
 27 30  2  0
 26 31  2  0
 31 32  1  0
 20 33  2  0
 33 34  1  0
 12 35  1  0
 35 36  2  0
 36  5  1  0
 35  8  1  0
 34 17  2  0
 32 23  2  0
  1 37  1  0
  1 38  1  0
  1 39  1  0
  6 40  1  0
  7 41  1  0
  9 42  1  0
 11 43  1  0
 18 44  1  0
 19 45  1  0
 24 46  1  0
 25 47  1  0
 28 48  1  0
 28 49  1  0
 31 50  1  0
 32 51  1  0
 33 52  1  0
 34 53  1  0
 36 54  1  0
M  END
>  <meeko>  (1) 
{"is_sidechain": false}

>  <smiles>  (1) 
COC(=O)c1ccc2[nH]c(O)c(N=NN=Nc3ccc(N=Nc4ccc(S(N)(=O)=O)cc4)cc3)c2c1

>  <vina_score>  (1) 
-8.272

>  <job_id>  (1) 
48a94daa885dcda5

$$$$
