
     RDKit          3D

 45 47  0  0  0  0  0  0  0  0999 V2000
   53.2300   82.9180   24.9620 C   0  0  0  0  0  0  0  0  0  0  0  0
   54.1290   82.6920   26.1840 C   0  0  0  0  0  0  0  0  0  0  0  0
   54.8360   84.0190   26.5200 C   0  0  0  0  0  0  0  0  0  0  0  0
   53.3100   82.2580   27.4050 C   0  0  0  0  0  0  0  0  0  0  0  0
   55.4760   81.4910   25.8240 S   0  0  0  0  0  0  0  0  0  0  0  0
   54.6240   79.9620   25.6360 C   0  0  0  0  0  0  0  0  0  0  0  0
   53.9530   79.7110   24.6420 O   0  0  0  0  0  0  0  0  0  0  0  0
   54.7000   79.1110   26.7860 C   0  0  0  0  0  0  0  0  0  0  0  0
   53.8950   78.0330   27.0800 C   0  0  0  0  0  0  0  0  0  0  0  0
   52.8820   77.5550   26.3520 N   0  0  0  0  0  0  0  0  0  0  0  0
   54.2010   77.4410   28.2580 N   0  0  0  0  0  0  0  0  0  0  0  0
   55.2300   78.1210   28.7120 C   0  0  0  0  0  0  0  0  0  0  0  0
   56.0000   77.9490   29.8960 C   0  0  0  0  0  0  0  0  0  0  0  0
   57.0710   78.7320   30.1220 C   0  0  0  0  0  0  0  0  0  0  0  0
   57.4640   79.7700   29.1730 C   0  0  0  0  0  0  0  0  0  0  0  0
   58.6640   80.6390   29.3440 C   0  0  0  0  0  0  0  0  0  0  0  0
   59.6850   80.4640   28.6780 O   0  0  0  0  0  0  0  0  0  0  0  0
   58.6950   81.6560   30.4120 C   0  0  0  0  0  0  0  0  0  0  0  0
   58.1850   82.9280   30.1110 C   0  0  0  0  0  0  0  0  0  0  0  0
   57.6130   83.2330   28.9040 O   0  0  0  0  0  0  0  0  0  0  0  0
   58.2350   83.9580   31.0480 C   0  0  0  0  0  0  0  0  0  0  0  0
   58.7610   83.7150   32.3150 C   0  0  0  0  0  0  0  0  0  0  0  0
   59.2200   82.4390   32.6450 C   0  0  0  0  0  0  0  0  0  0  0  0
   59.1810   81.4050   31.7010 C   0  0  0  0  0  0  0  0  0  0  0  0
   59.6850   79.8390   32.2280 Cl  0  0  0  0  0  0  0  0  0  0  0  0
   56.7370   79.9300   28.0490 C   0  0  0  0  0  0  0  0  0  0  0  0
   55.6090   79.1350   27.8300 N   0  0  0  0  0  0  0  0  0  0  0  0
   52.2138   83.1735   25.2967 H   0  0  0  0  0  0  0  0  0  0  0  0
   53.6347   83.7423   24.3565 H   0  0  0  0  0  0  0  0  0  0  0  0
   53.1968   82.0003   24.3565 H   0  0  0  0  0  0  0  0  0  0  0  0
   54.8979   84.1352   27.6121 H   0  0  0  0  0  0  0  0  0  0  0  0
   55.8501   84.0123   26.0939 H   0  0  0  0  0  0  0  0  0  0  0  0
   54.2648   84.8569   26.0939 H   0  0  0  0  0  0  0  0  0  0  0  0
   53.8440   82.5410   28.3241 H   0  0  0  0  0  0  0  0  0  0  0  0
   52.3286   82.7544   27.3835 H   0  0  0  0  0  0  0  0  0  0  0  0
   53.1697   81.1672   27.3835 H   0  0  0  0  0  0  0  0  0  0  0  0
   52.5780   76.6100   26.5660 H   0  0  0  0  0  0  0  0  0  0  0  0
   52.8290   77.7700   25.3590 H   0  0  0  0  0  0  0  0  0  0  0  0
   55.7199   77.1760   30.6267 H   0  0  0  0  0  0  0  0  0  0  0  0
   57.6614   78.5874   31.0388 H   0  0  0  0  0  0  0  0  0  0  0  0
   57.3950   84.1900   28.8980 H   0  0  0  0  0  0  0  0  0  0  0  0
   57.8606   84.9592   30.7884 H   0  0  0  0  0  0  0  0  0  0  0  0
   58.8145   84.5278   33.0543 H   0  0  0  0  0  0  0  0  0  0  0  0
   59.6150   82.2441   33.6530 H   0  0  0  0  0  0  0  0  0  0  0  0
   57.0314   80.6853   27.3054 H   0  0  0  0  0  0  0  0  0  0  0  0
  1  2  1  0
  2  3  1  0
  2  4  1  0
  2  5  1  0
  5  6  1  0
  6  7  2  0
  6  8  1  0
  8  9  2  0
  9 10  1  0
  9 11  1  0
 11 12  2  0
 12 13  1  0
 13 14  2  0
 14 15  1  0
 15 16  1  0
 16 17  2  0
 16 18  1  0
 18 19  1  0
 19 20  1  0
 19 21  2  0
 21 22  1  0
 22 23  2  0
 23 24  1  0
 24 25  1  0
 15 26  2  0
 26 27  1  0
 27  8  1  0
 27 12  1  0
 24 18  2  0
  1 28  1  0
  1 29  1  0
  1 30  1  0
  3 31  1  0
  3 32  1  0
  3 33  1  0
  4 34  1  0
  4 35  1  0
  4 36  1  0
 10 37  1  0
 10 38  1  0
 13 39  1  0
 14 40  1  0
 20 41  1  0
 21 42  1  0
 22 43  1  0
 23 44  1  0
 26 45  1  0
M  END
>  <meeko>  (1) 
{"is_sidechain": false}

>  <smiles>  (1) 
CC(C)(C)SC(=O)c1c(N)nc2ccc(C(=O)c3c(O)cccc3Cl)cn12

>  <vina_score>  (1) 
-6.758

>  <job_id>  (1) 
48d55f571287dfc2

$$$$
