
     RDKit          3D

 42 45  0  0  0  0  0  0  0  0999 V2000
   58.1150   82.1550   28.7700 O   0  0  0  0  0  0  0  0  0  0  0  0
   58.1860   80.9490   28.9900 C   0  0  0  0  0  0  0  0  0  0  0  0
   58.5820   80.3880   30.1820 N   0  0  0  0  0  0  0  0  0  0  0  0
   59.1520   81.0470   31.2910 C   0  0  0  0  0  0  0  0  0  0  0  0
   60.3750   81.7210   31.2470 C   0  0  0  0  0  0  0  0  0  0  0  0
   60.8860   82.3390   32.3940 C   0  0  0  0  0  0  0  0  0  0  0  0
   60.1800   82.2770   33.5910 C   0  0  0  0  0  0  0  0  0  0  0  0
   60.8100   83.0340   35.0010 Cl  0  0  0  0  0  0  0  0  0  0  0  0
   58.9660   81.5980   33.6520 C   0  0  0  0  0  0  0  0  0  0  0  0
   58.4560   80.9820   32.5060 C   0  0  0  0  0  0  0  0  0  0  0  0
   57.8140   80.0150   28.0230 N   0  0  0  0  0  0  0  0  0  0  0  0
   57.7150   78.6180   28.4400 C   0  0  0  0  0  0  0  0  0  0  0  0
   56.3000   78.3110   28.9380 C   0  0  0  0  0  0  0  0  0  0  0  0
   55.2640   78.8220   27.9780 C   0  0  0  0  0  0  0  0  0  0  0  0
   53.9550   78.3980   28.0140 C   0  0  0  0  0  0  0  0  0  0  0  0
   53.0000   78.8570   27.1840 N   0  0  0  0  0  0  0  0  0  0  0  0
   53.3660   79.7840   26.2870 C   0  0  0  0  0  0  0  0  0  0  0  0
   52.3540   80.2390   25.4360 N   0  0  0  0  0  0  0  0  0  0  0  0
   52.6790   80.5930   24.0590 C   0  0  0  0  0  0  0  0  0  0  0  0
   51.6060   80.9820   23.0840 C   0  0  0  0  0  0  0  0  0  0  0  0
   52.5600   82.0190   23.6000 C   0  0  0  0  0  0  0  0  0  0  0  0
   54.6110   80.2760   26.1860 N   0  0  0  0  0  0  0  0  0  0  0  0
   55.5440   79.8000   27.0370 C   0  0  0  0  0  0  0  0  0  0  0  0
   56.9510   80.3460   26.8810 C   0  0  0  0  0  0  0  0  0  0  0  0
   58.2300   79.4580   30.3550 H   0  0  0  0  0  0  0  0  0  0  0  0
   60.9401   81.7662   30.3044 H   0  0  0  0  0  0  0  0  0  0  0  0
   61.8461   82.8739   32.3490 H   0  0  0  0  0  0  0  0  0  0  0  0
   58.4099   81.5466   34.5997 H   0  0  0  0  0  0  0  0  0  0  0  0
   57.4996   80.4411   32.5579 H   0  0  0  0  0  0  0  0  0  0  0  0
   57.9480   77.9666   27.5847 H   0  0  0  0  0  0  0  0  0  0  0  0
   58.4290   78.4370   29.2570 H   0  0  0  0  0  0  0  0  0  0  0  0
   56.1851   77.2221   29.0439 H   0  0  0  0  0  0  0  0  0  0  0  0
   56.1550   78.8121   29.9065 H   0  0  0  0  0  0  0  0  0  0  0  0
   53.6739   77.6424   28.7623 H   0  0  0  0  0  0  0  0  0  0  0  0
   51.7840   80.8710   25.9870 H   0  0  0  0  0  0  0  0  0  0  0  0
   53.4767   79.8357   24.0675 H   0  0  0  0  0  0  0  0  0  0  0  0
   51.6680   80.6504   22.0370 H   0  0  0  0  0  0  0  0  0  0  0  0
   50.5112   80.8805   23.0516 H   0  0  0  0  0  0  0  0  0  0  0  0
   53.3215   82.4471   22.9315 H   0  0  0  0  0  0  0  0  0  0  0  0
   52.4545   82.9918   24.1025 H   0  0  0  0  0  0  0  0  0  0  0  0
   57.3950   79.9209   25.9687 H   0  0  0  0  0  0  0  0  0  0  0  0
   56.8791   81.4422   26.8237 H   0  0  0  0  0  0  0  0  0  0  0  0
  1  2  2  0
  2  3  1  0
  3  4  1  0
  4  5  1  0
  5  6  2  0
  6  7  1  0
  7  8  1  0
  7  9  2  0
  9 10  1  0
  2 11  1  0
 11 12  1  0
 12 13  1  0
 13 14  1  0
 14 15  2  0
 15 16  1  0
 16 17  2  0
 17 18  1  0
 18 19  1  0
 19 20  1  0
 20 21  1  0
 17 22  1  0
 22 23  2  0
 23 24  1  0
 10  4  2  0
 24 11  1  0
 23 14  1  0
 21 19  1  0
  3 25  1  0
  5 26  1  0
  6 27  1  0
  9 28  1  0
 10 29  1  0
 12 30  1  0
 12 31  1  0
 13 32  1  0
 13 33  1  0
 15 34  1  0
 18 35  1  0
 19 36  1  0
 20 37  1  0
 20 38  1  0
 21 39  1  0
 21 40  1  0
 24 41  1  0
 24 42  1  0
M  END
>  <meeko>  (1) 
{"is_sidechain": false}

>  <smiles>  (1) 
O=C(Nc1ccc(Cl)cc1)N1CCc2cnc(NC3CC3)nc2C1

>  <vina_score>  (1) 
-7.441

>  <job_id>  (1) 
48dfd6727faa6b37

$$$$
