
     RDKit          3D

 53 55  0  0  0  0  0  0  0  0999 V2000
   54.6740   82.3020   26.7350 C   0  0  0  0  0  0  0  0  0  0  0  0
   53.4440   81.4270   26.9060 C   0  0  0  0  0  0  0  0  0  0  0  0
   53.4190   80.3060   25.9810 N   0  0  0  0  0  0  0  0  0  0  0  0
   53.9190   79.0310   26.1980 C   0  0  0  0  0  0  0  0  0  0  0  0
   54.5790   78.5340   27.4020 C   0  0  0  0  0  0  0  0  0  0  0  0
   53.9280   77.7060   28.2870 C   0  0  0  0  0  0  0  0  0  0  0  0
   54.6670   77.3040   29.3680 C   0  0  0  0  0  0  0  0  0  0  0  0
   55.9430   77.6710   29.5690 N   0  0  0  0  0  0  0  0  0  0  0  0
   56.5060   78.4740   28.6560 C   0  0  0  0  0  0  0  0  0  0  0  0
   57.8290   78.8930   28.7600 N   0  0  0  0  0  0  0  0  0  0  0  0
   58.4910   79.8340   29.5550 C   0  0  0  0  0  0  0  0  0  0  0  0
   58.4250   79.8560   30.9540 C   0  0  0  0  0  0  0  0  0  0  0  0
   59.1320   80.8040   31.7020 C   0  0  0  0  0  0  0  0  0  0  0  0
   59.9360   81.7350   31.0480 C   0  0  0  0  0  0  0  0  0  0  0  0
   60.8640   82.9320   31.9790 S   0  0  0  0  0  0  0  0  0  0  0  0
   60.9520   84.1260   31.1700 O   0  0  0  0  0  0  0  0  0  0  0  0
   60.3550   82.9510   33.3320 O   0  0  0  0  0  0  0  0  0  0  0  0
   62.3980   82.2420   32.0130 N   0  0  0  0  0  0  0  0  0  0  0  0
   63.3870   82.6990   31.0160 C   0  0  0  0  0  0  0  0  0  0  0  0
   64.5750   81.7320   31.0200 C   0  0  0  0  0  0  0  0  0  0  0  0
   65.6860   82.2820   30.2970 O   0  0  0  0  0  0  0  0  0  0  0  0
   65.9620   83.6330   30.6460 C   0  0  0  0  0  0  0  0  0  0  0  0
   60.0160   81.7460   29.6560 C   0  0  0  0  0  0  0  0  0  0  0  0
   59.3000   80.7950   28.9210 C   0  0  0  0  0  0  0  0  0  0  0  0
   55.8580   78.9190   27.5690 N   0  0  0  0  0  0  0  0  0  0  0  0
   53.6110   78.3570   25.0280 C   0  0  0  0  0  0  0  0  0  0  0  0
   52.9480   79.1540   24.1400 N   0  0  0  0  0  0  0  0  0  0  0  0
   52.8350   80.3240   24.7280 C   0  0  0  0  0  0  0  0  0  0  0  0
   52.1620   81.5090   24.1350 C   0  0  0  0  0  0  0  0  0  0  0  0
   55.0660   82.5809   27.7242 H   0  0  0  0  0  0  0  0  0  0  0  0
   55.4439   81.7475   26.1785 H   0  0  0  0  0  0  0  0  0  0  0  0
   54.4027   83.2112   26.1785 H   0  0  0  0  0  0  0  0  0  0  0  0
   53.4311   81.0353   27.9338 H   0  0  0  0  0  0  0  0  0  0  0  0
   52.5619   82.0499   26.6965 H   0  0  0  0  0  0  0  0  0  0  0  0
   52.8856   77.3886   28.1368 H   0  0  0  0  0  0  0  0  0  0  0  0
   54.1905   76.6464   30.1100 H   0  0  0  0  0  0  0  0  0  0  0  0
   58.3770   78.4220   28.0550 H   0  0  0  0  0  0  0  0  0  0  0  0
   57.8044   79.1125   31.4756 H   0  0  0  0  0  0  0  0  0  0  0  0
   59.0535   80.8141   32.7991 H   0  0  0  0  0  0  0  0  0  0  0  0
   62.7710   82.1820   32.9650 H   0  0  0  0  0  0  0  0  0  0  0  0
   62.9257   82.7137   30.0175 H   0  0  0  0  0  0  0  0  0  0  0  0
   63.7300   83.7134   31.2676 H   0  0  0  0  0  0  0  0  0  0  0  0
   64.8806   81.5414   32.0594 H   0  0  0  0  0  0  0  0  0  0  0  0
   64.2672   80.7955   30.5319 H   0  0  0  0  0  0  0  0  0  0  0  0
   65.9822   83.7320   31.7414 H   0  0  0  0  0  0  0  0  0  0  0  0
   66.9386   83.9262   30.2333 H   0  0  0  0  0  0  0  0  0  0  0  0
   65.1786   84.2857   30.2333 H   0  0  0  0  0  0  0  0  0  0  0  0
   60.6358   82.4948   29.1410 H   0  0  0  0  0  0  0  0  0  0  0  0
   59.3710   80.7986   27.8233 H   0  0  0  0  0  0  0  0  0  0  0  0
   53.8697   77.3050   24.8371 H   0  0  0  0  0  0  0  0  0  0  0  0
   51.7916   82.1612   24.9397 H   0  0  0  0  0  0  0  0  0  0  0  0
   52.8791   82.0650   23.5132 H   0  0  0  0  0  0  0  0  0  0  0  0
   51.3172   81.1779   23.5132 H   0  0  0  0  0  0  0  0  0  0  0  0
  1  2  1  0
  2  3  1  0
  3  4  1  0
  4  5  1  0
  5  6  1  0
  6  7  2  0
  7  8  1  0
  8  9  2  0
  9 10  1  0
 10 11  1  0
 11 12  1  0
 12 13  2  0
 13 14  1  0
 14 15  1  0
 15 16  2  0
 15 17  2  0
 15 18  1  0
 18 19  1  0
 19 20  1  0
 20 21  1  0
 21 22  1  0
 14 23  2  0
 23 24  1  0
  9 25  1  0
  4 26  2  0
 26 27  1  0
 27 28  2  0
 28 29  1  0
 28  3  1  0
 25  5  2  0
 24 11  2  0
  1 30  1  0
  1 31  1  0
  1 32  1  0
  2 33  1  0
  2 34  1  0
  6 35  1  0
  7 36  1  0
 10 37  1  0
 12 38  1  0
 13 39  1  0
 18 40  1  0
 19 41  1  0
 19 42  1  0
 20 43  1  0
 20 44  1  0
 22 45  1  0
 22 46  1  0
 22 47  1  0
 23 48  1  0
 24 49  1  0
 26 50  1  0
 29 51  1  0
 29 52  1  0
 29 53  1  0
M  END
>  <meeko>  (1) 
{"is_sidechain": false}

>  <smiles>  (1) 
CCn1c(-c2ccnc(Nc3ccc(S(=O)(=O)NCCOC)cc3)n2)cnc1C

>  <vina_score>  (1) 
-7.899

>  <job_id>  (1) 
49207c9316c424f8

$$$$
