
     RDKit          3D

 66 69  0  0  0  0  0  0  0  0999 V2000
   56.7700   81.7160   27.2710 C   0  0  0  0  0  0  0  0  0  0  0  0
   57.8120   80.8260   27.6450 O   0  0  0  0  0  0  0  0  0  0  0  0
   58.1850   80.8150   28.9720 C   0  0  0  0  0  0  0  0  0  0  0  0
   58.7370   81.9080   29.6560 C   0  0  0  0  0  0  0  0  0  0  0  0
   59.1000   81.8310   31.0120 C   0  0  0  0  0  0  0  0  0  0  0  0
   59.6460   82.9530   31.6480 N   0  0  0  0  0  0  0  0  0  0  0  0
   60.7530   83.7000   31.0200 C   0  0  0  0  0  0  0  0  0  0  0  0
   62.1000   83.3900   31.6930 C   0  0  0  0  0  0  0  0  0  0  0  0
   62.0790   83.6370   33.1430 N   0  0  0  0  0  0  0  0  0  0  0  0
   63.2080   83.7410   33.9350 C   0  0  0  0  0  0  0  0  0  0  0  0
   64.5370   83.5270   33.2570 C   0  0  0  0  0  0  0  0  0  0  0  0
   63.1550   84.0020   35.1370 O   0  0  0  0  0  0  0  0  0  0  0  0
   60.7520   83.7850   33.7530 C   0  0  0  0  0  0  0  0  0  0  0  0
   59.7140   82.8340   33.1290 C   0  0  0  0  0  0  0  0  0  0  0  0
   58.8910   80.6070   31.6540 C   0  0  0  0  0  0  0  0  0  0  0  0
   58.3370   79.5080   30.9830 C   0  0  0  0  0  0  0  0  0  0  0  0
   57.9730   79.5900   29.6400 C   0  0  0  0  0  0  0  0  0  0  0  0
   57.4140   78.5250   28.9210 N   0  0  0  0  0  0  0  0  0  0  0  0
   56.1280   78.0490   28.7110 C   0  0  0  0  0  0  0  0  0  0  0  0
   55.6420   76.9970   29.3780 N   0  0  0  0  0  0  0  0  0  0  0  0
   54.3790   76.6260   29.1020 C   0  0  0  0  0  0  0  0  0  0  0  0
   53.5640   77.2550   28.1830 C   0  0  0  0  0  0  0  0  0  0  0  0
   52.1710   76.7750   27.9420 C   0  0  0  0  0  0  0  0  0  0  0  0
   54.1500   78.3220   27.5190 C   0  0  0  0  0  0  0  0  0  0  0  0
   53.3960   79.1470   26.4880 C   0  0  2  0  0  0  0  0  0  0  0  0
   53.9580   78.9660   25.0690 C   0  0  0  0  0  0  0  0  0  0  0  0
   53.1270   79.7130   24.0190 C   0  0  0  0  0  0  0  0  0  0  0  0
   52.5770   81.0690   24.4970 C   0  0  1  0  0  0  0  0  0  0  0  0
   51.1490   80.9810   24.8170 N   0  0  0  0  0  0  0  0  0  0  0  0
   53.3550   81.5980   25.7040 C   0  0  0  0  0  0  0  0  0  0  0  0
   53.3780   80.6330   26.8950 C   0  0  0  0  0  0  0  0  0  0  0  0
   55.4140   78.7230   27.7930 N   0  0  0  0  0  0  0  0  0  0  0  0
   56.2934   82.1231   28.1750 H   0  0  0  0  0  0  0  0  0  0  0  0
   57.1882   82.5400   26.6742 H   0  0  0  0  0  0  0  0  0  0  0  0
   56.0215   81.1741   26.6742 H   0  0  0  0  0  0  0  0  0  0  0  0
   58.8905   82.8536   29.1154 H   0  0  0  0  0  0  0  0  0  0  0  0
   60.8129   83.4225   29.9573 H   0  0  0  0  0  0  0  0  0  0  0  0
   60.5508   84.7751   31.1351 H   0  0  0  0  0  0  0  0  0  0  0  0
   62.3450   82.3317   31.5196 H   0  0  0  0  0  0  0  0  0  0  0  0
   62.8539   84.0589   31.2524 H   0  0  0  0  0  0  0  0  0  0  0  0
   65.3209   83.4008   34.0183 H   0  0  0  0  0  0  0  0  0  0  0  0
   64.4872   82.6253   32.6289 H   0  0  0  0  0  0  0  0  0  0  0  0
   64.7728   84.3987   32.6289 H   0  0  0  0  0  0  0  0  0  0  0  0
   60.8304   83.5670   34.8283 H   0  0  0  0  0  0  0  0  0  0  0  0
   60.4131   84.8165   33.5765 H   0  0  0  0  0  0  0  0  0  0  0  0
   59.9842   81.7994   33.3872 H   0  0  0  0  0  0  0  0  0  0  0  0
   58.7274   83.1082   33.5307 H   0  0  0  0  0  0  0  0  0  0  0  0
   59.1685   80.5035   32.7134 H   0  0  0  0  0  0  0  0  0  0  0  0
   58.1868   78.5634   31.5263 H   0  0  0  0  0  0  0  0  0  0  0  0
   58.0900   77.9550   28.4270 H   0  0  0  0  0  0  0  0  0  0  0  0
   53.9678   75.7627   29.6457 H   0  0  0  0  0  0  0  0  0  0  0  0
   51.6706   76.6026   28.9063 H   0  0  0  0  0  0  0  0  0  0  0  0
   51.6154   77.5335   27.3711 H   0  0  0  0  0  0  0  0  0  0  0  0
   52.2006   75.8352   27.3711 H   0  0  0  0  0  0  0  0  0  0  0  0
   52.3605   78.7765   26.4650 H   0  0  0  0  0  0  0  0  0  0  0  0
   54.9886   79.3498   25.0442 H   0  0  0  0  0  0  0  0  0  0  0  0
   53.9251   77.8936   24.8263 H   0  0  0  0  0  0  0  0  0  0  0  0
   53.7620   79.8895   23.1383 H   0  0  0  0  0  0  0  0  0  0  0  0
   52.2558   79.0794   23.7964 H   0  0  0  0  0  0  0  0  0  0  0  0
   52.7062   81.7787   23.6666 H   0  0  0  0  0  0  0  0  0  0  0  0
   51.0230   81.0740   25.8250 H   0  0  0  0  0  0  0  0  0  0  0  0
   50.6360   81.7540   24.4000 H   0  0  0  0  0  0  0  0  0  0  0  0
   54.3924   81.7887   25.3918 H   0  0  0  0  0  0  0  0  0  0  0  0
   52.8427   82.5113   26.0408 H   0  0  0  0  0  0  0  0  0  0  0  0
   54.2780   80.8403   27.4926 H   0  0  0  0  0  0  0  0  0  0  0  0
   52.4502   80.7998   27.4618 H   0  0  0  0  0  0  0  0  0  0  0  0
  1  2  1  0
  2  3  1  0
  3  4  1  0
  4  5  2  0
  5  6  1  0
  6  7  1  0
  7  8  1  0
  8  9  1  0
  9 10  1  0
 10 11  1  0
 10 12  2  0
  9 13  1  0
 13 14  1  0
  5 15  1  0
 15 16  2  0
 16 17  1  0
 17 18  1  0
 18 19  1  0
 19 20  2  0
 20 21  1  0
 21 22  2  0
 22 23  1  0
 22 24  1  0
 24 25  1  0
 25 26  1  0
 26 27  1  0
 27 28  1  0
 28 29  1  0
 28 30  1  0
 30 31  1  0
 24 32  2  0
 17  3  2  0
 32 19  1  0
 14  6  1  0
 31 25  1  0
  1 33  1  0
  1 34  1  0
  1 35  1  0
  4 36  1  0
  7 37  1  0
  7 38  1  0
  8 39  1  0
  8 40  1  0
 11 41  1  0
 11 42  1  0
 11 43  1  0
 13 44  1  0
 13 45  1  0
 14 46  1  0
 14 47  1  0
 15 48  1  0
 16 49  1  0
 18 50  1  0
 21 51  1  0
 23 52  1  0
 23 53  1  0
 23 54  1  0
 25 55  1  1
 26 56  1  0
 26 57  1  0
 27 58  1  0
 27 59  1  0
 28 60  1  1
 29 61  1  0
 29 62  1  0
 30 63  1  0
 30 64  1  0
 31 65  1  0
 31 66  1  0
M  END
>  <meeko>  (1) 
{"is_sidechain": false}

>  <smiles>  (1) 
COc1cc(N2CCN(C(C)=O)CC2)ccc1Nc1ncc(C)c([C@H]2CC[C@H](N)CC2)n1

>  <vina_score>  (1) 
-8.548

>  <job_id>  (1) 
496d0dbdcd98621d

$$$$
