
     RDKit          3D

 42 43  0  0  0  0  0  0  0  0999 V2000
   54.8990   76.8040   29.4960 C   0  0  0  0  0  0  0  0  0  0  0  0
   54.8650   77.8640   28.4570 C   0  0  0  0  0  0  0  0  0  0  0  0
   55.8080   78.7760   28.3250 N   0  0  0  0  0  0  0  0  0  0  0  0
   55.4390   79.5520   27.2670 C   0  0  0  0  0  0  0  0  0  0  0  0
   54.2450   79.1250   26.7260 C   0  0  0  0  0  0  0  0  0  0  0  0
   53.5000   79.6690   25.6000 C   0  0  0  0  0  0  0  0  0  0  0  0
   52.7430   80.8360   25.7600 C   0  0  0  0  0  0  0  0  0  0  0  0
   52.0300   81.3660   24.6830 C   0  0  0  0  0  0  0  0  0  0  0  0
   52.0790   80.7230   23.4420 C   0  0  0  0  0  0  0  0  0  0  0  0
   51.1510   81.3720   22.0840 S   0  0  0  0  0  0  0  0  0  0  0  0
   49.5770   80.9820   22.5240 N   0  0  0  0  0  0  0  0  0  0  0  0
   51.2210   82.8140   22.1050 O   0  0  0  0  0  0  0  0  0  0  0  0
   51.4350   80.5970   20.8980 O   0  0  0  0  0  0  0  0  0  0  0  0
   52.8150   79.5460   23.2770 C   0  0  0  0  0  0  0  0  0  0  0  0
   53.5270   79.0220   24.3580 C   0  0  0  0  0  0  0  0  0  0  0  0
   53.8850   78.0260   27.4930 N   0  0  0  0  0  0  0  0  0  0  0  0
   52.6710   77.2250   27.2860 C   0  0  0  0  0  0  0  0  0  0  0  0
   51.7920   77.2470   28.5430 C   0  0  0  0  0  0  0  0  0  0  0  0
   52.9280   75.7980   26.7210 C   0  0  0  0  0  0  0  0  0  0  0  0
   51.8070   75.3570   25.7700 C   0  0  0  0  0  0  0  0  0  0  0  0
   53.0620   74.7590   27.8410 C   0  0  0  0  0  0  0  0  0  0  0  0
   54.8841   77.2676   30.4934 H   0  0  0  0  0  0  0  0  0  0  0  0
   54.0213   76.1507   29.3822 H   0  0  0  0  0  0  0  0  0  0  0  0
   55.8167   76.2083   29.3822 H   0  0  0  0  0  0  0  0  0  0  0  0
   56.0191   80.4085   26.8930 H   0  0  0  0  0  0  0  0  0  0  0  0
   52.7099   81.3374   26.7385 H   0  0  0  0  0  0  0  0  0  0  0  0
   51.4344   82.2821   24.8095 H   0  0  0  0  0  0  0  0  0  0  0  0
   48.9650   81.0650   21.7110 H   0  0  0  0  0  0  0  0  0  0  0  0
   49.2900   81.5600   23.3150 H   0  0  0  0  0  0  0  0  0  0  0  0
   52.8332   79.0362   22.3025 H   0  0  0  0  0  0  0  0  0  0  0  0
   54.1110   78.0981   24.2337 H   0  0  0  0  0  0  0  0  0  0  0  0
   52.1042   77.7091   26.4771 H   0  0  0  0  0  0  0  0  0  0  0  0
   52.4314   77.2310   29.4379 H   0  0  0  0  0  0  0  0  0  0  0  0
   51.1796   78.1608   28.5462 H   0  0  0  0  0  0  0  0  0  0  0  0
   51.1346   76.3650   28.5462 H   0  0  0  0  0  0  0  0  0  0  0  0
   53.8757   75.8541   26.1654 H   0  0  0  0  0  0  0  0  0  0  0  0
   50.9412   75.0164   26.3568 H   0  0  0  0  0  0  0  0  0  0  0  0
   51.5094   76.2051   25.1358 H   0  0  0  0  0  0  0  0  0  0  0  0
   52.1670   74.5335   25.1358 H   0  0  0  0  0  0  0  0  0  0  0  0
   52.9972   75.2618   28.8172 H   0  0  0  0  0  0  0  0  0  0  0  0
   52.2517   74.0201   27.7546 H   0  0  0  0  0  0  0  0  0  0  0  0
   54.0332   74.2499   27.7546 H   0  0  0  0  0  0  0  0  0  0  0  0
  1  2  1  0
  2  3  2  0
  3  4  1  0
  4  5  2  0
  5  6  1  0
  6  7  1  0
  7  8  2  0
  8  9  1  0
  9 10  1  0
 10 11  1  0
 10 12  2  0
 10 13  2  0
  9 14  2  0
 14 15  1  0
  5 16  1  0
 16 17  1  0
 17 18  1  0
 17 19  1  0
 19 20  1  0
 19 21  1  0
 16  2  1  0
 15  6  2  0
  1 22  1  0
  1 23  1  0
  1 24  1  0
  4 25  1  0
  7 26  1  0
  8 27  1  0
 11 28  1  0
 11 29  1  0
 14 30  1  0
 15 31  1  0
 17 32  1  0
 18 33  1  0
 18 34  1  0
 18 35  1  0
 19 36  1  0
 20 37  1  0
 20 38  1  0
 20 39  1  0
 21 40  1  0
 21 41  1  0
 21 42  1  0
M  END
>  <meeko>  (1) 
{"is_sidechain": false}

>  <smiles>  (1) 
Cc1ncc(-c2ccc(S(N)(=O)=O)cc2)n1C(C)C(C)C

>  <vina_score>  (1) 
-7.010

>  <job_id>  (1) 
4a564632c789e69f

$$$$
