
     RDKit          3D

 58 59  0  0  0  0  0  0  0  0999 V2000
   53.4450   81.9340   27.3000 C   0  0  0  0  0  0  0  0  0  0  0  0
   54.6740   81.5110   26.5010 C   0  0  1  0  0  0  0  0  0  0  0  0
   54.5560   80.0970   26.3080 O   0  0  0  0  0  0  0  0  0  0  0  0
   55.0630   79.3000   27.3070 C   0  0  0  0  0  0  0  0  0  0  0  0
   56.3070   79.5450   27.7610 N   0  0  0  0  0  0  0  0  0  0  0  0
   56.7990   78.7200   28.6990 C   0  0  0  0  0  0  0  0  0  0  0  0
   58.0810   79.0310   29.1410 N   0  0  0  0  0  0  0  0  0  0  0  0
   58.6250   80.0800   29.8890 C   0  0  0  0  0  0  0  0  0  0  0  0
   58.1770   80.2600   31.2110 C   0  0  0  0  0  0  0  0  0  0  0  0
   58.6610   81.2970   32.0140 C   0  0  0  0  0  0  0  0  0  0  0  0
   59.6000   82.1840   31.4890 C   0  0  0  0  0  0  0  0  0  0  0  0
   60.2440   83.5030   32.4970 S   0  0  0  0  0  0  0  0  0  0  0  0
   60.0210   83.1270   33.8880 O   0  0  0  0  0  0  0  0  0  0  0  0
   61.5860   83.7930   32.0150 O   0  0  0  0  0  0  0  0  0  0  0  0
   58.9410   85.2340   32.0620 S   0  0  0  0  0  0  0  0  0  0  0  0
   57.4500   85.0780   32.8960 N   0  0  0  0  0  0  0  0  0  0  0  0
   58.5740   85.1970   30.6580 O   0  0  0  0  0  0  0  0  0  0  0  0
   59.5380   86.4210   32.6460 O   0  0  0  0  0  0  0  0  0  0  0  0
   60.0700   82.0250   30.1870 C   0  0  0  0  0  0  0  0  0  0  0  0
   59.5740   80.9830   29.3950 C   0  0  0  0  0  0  0  0  0  0  0  0
   56.1150   77.6710   29.1690 N   0  0  0  0  0  0  0  0  0  0  0  0
   54.8810   77.4530   28.6750 C   0  0  0  0  0  0  0  0  0  0  0  0
   54.2930   78.2460   27.7240 C   0  0  0  0  0  0  0  0  0  0  0  0
   52.9380   77.9770   27.1890 C   0  0  0  0  0  0  0  0  0  0  0  0
   52.1880   79.1040   27.0410 F   0  0  0  0  0  0  0  0  0  0  0  0
   52.2030   77.1600   27.9980 F   0  0  0  0  0  0  0  0  0  0  0  0
   52.9550   77.3640   25.9760 F   0  0  0  0  0  0  0  0  0  0  0  0
   54.6040   82.2030   25.2590 O   0  0  0  0  0  0  0  0  0  0  0  0
   53.2860   82.6280   24.9770 C   0  0  0  0  0  0  0  0  0  0  0  0
   53.3120   83.9840   25.0520 F   0  0  0  0  0  0  0  0  0  0  0  0
   52.9150   82.2950   23.6500 O   0  0  0  0  0  0  0  0  0  0  0  0
   51.8690   81.3220   23.5770 C   0  0  2  0  0  0  0  0  0  0  0  0
   52.5560   79.9570   23.5070 C   0  0  0  0  0  0  0  0  0  0  0  0
   50.8930   81.5520   22.3980 C   0  0  1  0  0  0  0  0  0  0  0  0
   51.3850   80.9870   21.0690 C   0  0  0  0  0  0  0  0  0  0  0  0
   49.6220   80.9750   22.7130 O   0  0  0  0  0  0  0  0  0  0  0  0
   53.6632   81.8589   28.3755 H   0  0  0  0  0  0  0  0  0  0  0  0
   53.1852   82.9733   27.0503 H   0  0  0  0  0  0  0  0  0  0  0  0
   52.6006   81.2748   27.0503 H   0  0  0  0  0  0  0  0  0  0  0  0
   55.6302   81.7396   26.9944 H   0  0  0  0  0  0  0  0  0  0  0  0
   58.7320   78.3510   28.7780 H   0  0  0  0  0  0  0  0  0  0  0  0
   57.4277   79.5678   31.6225 H   0  0  0  0  0  0  0  0  0  0  0  0
   58.3050   81.4119   33.0484 H   0  0  0  0  0  0  0  0  0  0  0  0
   56.7840   84.6110   32.2780 H   0  0  0  0  0  0  0  0  0  0  0  0
   57.1340   86.0130   33.1640 H   0  0  0  0  0  0  0  0  0  0  0  0
   60.8265   82.7144   29.7839 H   0  0  0  0  0  0  0  0  0  0  0  0
   59.9374   80.8712   28.3628 H   0  0  0  0  0  0  0  0  0  0  0  0
   54.3137   76.5909   29.0558 H   0  0  0  0  0  0  0  0  0  0  0  0
   52.5796   82.1543   25.6746 H   0  0  0  0  0  0  0  0  0  0  0  0
   51.2238   81.3965   24.4648 H   0  0  0  0  0  0  0  0  0  0  0  0
   52.7420   79.5874   24.5262 H   0  0  0  0  0  0  0  0  0  0  0  0
   51.9077   79.2472   22.9722 H   0  0  0  0  0  0  0  0  0  0  0  0
   53.5123   80.0548   22.9722 H   0  0  0  0  0  0  0  0  0  0  0  0
   50.8164   82.6415   22.2671 H   0  0  0  0  0  0  0  0  0  0  0  0
   52.0965   80.1699   21.2589 H   0  0  0  0  0  0  0  0  0  0  0  0
   50.5293   80.6021   20.4949 H   0  0  0  0  0  0  0  0  0  0  0  0
   51.8839   81.7817   20.4949 H   0  0  0  0  0  0  0  0  0  0  0  0
   49.7880   80.2030   23.2810 H   0  0  0  0  0  0  0  0  0  0  0  0
  1  2  1  0
  2  3  1  0
  3  4  1  0
  4  5  2  0
  5  6  1  0
  6  7  1  0
  7  8  1  0
  8  9  1  0
  9 10  2  0
 10 11  1  0
 11 12  1  0
 12 13  2  0
 12 14  2  0
 12 15  1  0
 15 16  1  0
 15 17  2  0
 15 18  2  0
 11 19  2  0
 19 20  1  0
  6 21  2  0
 21 22  1  0
 22 23  2  0
 23 24  1  0
 24 25  1  0
 24 26  1  0
 24 27  1  0
  2 28  1  0
 28 29  1  0
 29 30  1  0
 29 31  1  0
 31 32  1  0
 32 33  1  0
 32 34  1  0
 34 35  1  0
 34 36  1  0
 23  4  1  0
 20  8  2  0
  1 37  1  0
  1 38  1  0
  1 39  1  0
  2 40  1  1
  7 41  1  0
  9 42  1  0
 10 43  1  0
 16 44  1  0
 16 45  1  0
 19 46  1  0
 20 47  1  0
 22 48  1  0
 29 49  1  0
 32 50  1  1
 33 51  1  0
 33 52  1  0
 33 53  1  0
 34 54  1  6
 35 55  1  0
 35 56  1  0
 35 57  1  0
 36 58  1  0
M  END
>  <meeko>  (1) 
{"is_sidechain": false}

>  <smiles>  (1) 
C[C@@H](Oc1nc(Nc2ccc(S(=O)(=O)S(N)(=O)=O)cc2)ncc1C(F)(F)F)OC(F)O[C@H](C)[C@@H](C)O

>  <vina_score>  (1) 
-8.404

>  <job_id>  (1) 
4af9648ba9b6f07d

$$$$
