
     RDKit          3D

 42 43  0  0  0  0  0  0  0  0999 V2000
   58.7360   83.9270   30.9670 C   0  0  0  0  0  0  0  0  0  0  0  0
   60.0250   83.6640   31.7560 C   0  0  0  0  0  0  0  0  0  0  0  0
   59.7150   83.6350   33.2590 C   0  0  0  0  0  0  0  0  0  0  0  0
   61.0230   84.8020   31.4750 C   0  0  0  0  0  0  0  0  0  0  0  0
   60.7990   82.1010   31.2250 S   0  0  0  0  0  0  0  0  0  0  0  0
   61.3310   81.4260   32.3970 O   0  0  0  0  0  0  0  0  0  0  0  0
   61.6680   82.3770   30.0960 O   0  0  0  0  0  0  0  0  0  0  0  0
   59.4740   81.0800   30.6100 C   0  0  0  0  0  0  0  0  0  0  0  0
   58.6010   80.4630   31.5080 C   0  0  0  0  0  0  0  0  0  0  0  0
   57.5420   79.6920   31.0220 C   0  0  0  0  0  0  0  0  0  0  0  0
   57.3260   79.5430   29.6400 C   0  0  0  0  0  0  0  0  0  0  0  0
   56.2050   78.7320   29.1330 C   0  0  0  0  0  0  0  0  0  0  0  0
   55.4330   79.1680   28.0410 C   0  0  0  0  0  0  0  0  0  0  0  0
   54.3670   78.4040   27.5590 C   0  0  0  0  0  0  0  0  0  0  0  0
   54.0680   77.1820   28.1660 C   0  0  0  0  0  0  0  0  0  0  0  0
   52.7100   76.2180   27.5590 S   0  0  0  0  0  0  0  0  0  0  0  0
   53.2120   74.6560   27.9340 N   0  0  0  0  0  0  0  0  0  0  0  0
   52.6680   76.3410   26.1210 O   0  0  0  0  0  0  0  0  0  0  0  0
   51.5580   76.4700   28.3950 O   0  0  0  0  0  0  0  0  0  0  0  0
   54.8100   76.7300   29.2570 C   0  0  0  0  0  0  0  0  0  0  0  0
   55.8750   77.5030   29.7310 C   0  0  0  0  0  0  0  0  0  0  0  0
   58.2020   80.1990   28.7570 C   0  0  0  0  0  0  0  0  0  0  0  0
   59.2640   80.9710   29.2340 C   0  0  0  0  0  0  0  0  0  0  0  0
   57.9053   84.0965   31.6678 H   0  0  0  0  0  0  0  0  0  0  0  0
   58.8688   84.8166   30.3337 H   0  0  0  0  0  0  0  0  0  0  0  0
   58.5097   83.0565   30.3337 H   0  0  0  0  0  0  0  0  0  0  0  0
   60.6521   83.7227   33.8284 H   0  0  0  0  0  0  0  0  0  0  0  0
   59.0517   84.4750   33.5129 H   0  0  0  0  0  0  0  0  0  0  0  0
   59.2190   82.6865   33.5129 H   0  0  0  0  0  0  0  0  0  0  0  0
   61.3855   85.2154   32.4277 H   0  0  0  0  0  0  0  0  0  0  0  0
   61.8736   84.4097   30.8982 H   0  0  0  0  0  0  0  0  0  0  0  0
   60.5230   85.5941   30.8982 H   0  0  0  0  0  0  0  0  0  0  0  0
   58.7461   80.5832   32.5917 H   0  0  0  0  0  0  0  0  0  0  0  0
   56.8659   79.1932   31.7319 H   0  0  0  0  0  0  0  0  0  0  0  0
   55.6726   80.1269   27.5582 H   0  0  0  0  0  0  0  0  0  0  0  0
   53.7682   78.7619   26.7085 H   0  0  0  0  0  0  0  0  0  0  0  0
   52.5200   73.9940   27.5800 H   0  0  0  0  0  0  0  0  0  0  0  0
   53.3970   74.5190   28.9270 H   0  0  0  0  0  0  0  0  0  0  0  0
   54.5599   75.7741   29.7404 H   0  0  0  0  0  0  0  0  0  0  0  0
   56.4649   77.1430   30.5868 H   0  0  0  0  0  0  0  0  0  0  0  0
   58.0483   80.1026   27.6721 H   0  0  0  0  0  0  0  0  0  0  0  0
   59.9308   81.4899   28.5297 H   0  0  0  0  0  0  0  0  0  0  0  0
  1  2  1  0
  2  3  1  0
  2  4  1  0
  2  5  1  0
  5  6  2  0
  5  7  2  0
  5  8  1  0
  8  9  1  0
  9 10  2  0
 10 11  1  0
 11 12  1  0
 12 13  1  0
 13 14  2  0
 14 15  1  0
 15 16  1  0
 16 17  1  0
 16 18  2  0
 16 19  2  0
 15 20  2  0
 20 21  1  0
 11 22  2  0
 22 23  1  0
 23  8  2  0
 21 12  2  0
  1 24  1  0
  1 25  1  0
  1 26  1  0
  3 27  1  0
  3 28  1  0
  3 29  1  0
  4 30  1  0
  4 31  1  0
  4 32  1  0
  9 33  1  0
 10 34  1  0
 13 35  1  0
 14 36  1  0
 17 37  1  0
 17 38  1  0
 20 39  1  0
 21 40  1  0
 22 41  1  0
 23 42  1  0
M  END
>  <meeko>  (1) 
{"is_sidechain": false}

>  <smiles>  (1) 
CC(C)(C)S(=O)(=O)c1ccc(-c2ccc(S(N)(=O)=O)cc2)cc1

>  <vina_score>  (1) 
-7.105

>  <job_id>  (1) 
4b0c60c747216858

$$$$
