
     RDKit          3D

 54 56  0  0  0  0  0  0  0  0999 V2000
   61.0470   79.6650   34.0220 C   0  0  0  0  0  0  0  0  0  0  0  0
   62.0380   80.5560   34.1900 C   0  0  0  0  0  0  0  0  0  0  0  0
   63.0630   80.4370   35.2740 C   0  0  0  0  0  0  0  0  0  0  0  0
   62.0970   81.7190   33.2510 C   0  0  0  0  0  0  0  0  0  0  0  0
   63.0260   81.9390   32.4850 O   0  0  0  0  0  0  0  0  0  0  0  0
   60.9380   82.6760   33.2280 C   0  0  0  0  0  0  0  0  0  0  0  0
   60.5810   83.2310   34.2590 O   0  0  0  0  0  0  0  0  0  0  0  0
   60.2300   82.9650   31.9380 C   0  0  0  0  0  0  0  0  0  0  0  0
   60.1800   84.1340   31.5740 O   0  0  0  0  0  0  0  0  0  0  0  0
   59.6080   81.8580   31.1730 C   0  0  0  0  0  0  0  0  0  0  0  0
   59.8880   81.7500   29.8080 C   0  0  0  0  0  0  0  0  0  0  0  0
   59.3160   80.7240   29.0440 C   0  0  0  0  0  0  0  0  0  0  0  0
   58.4540   79.7840   29.6190 C   0  0  0  0  0  0  0  0  0  0  0  0
   57.8450   78.7460   28.9110 N   0  0  0  0  0  0  0  0  0  0  0  0
   56.5300   78.3230   28.7490 C   0  0  0  0  0  0  0  0  0  0  0  0
   55.9330   77.4980   29.6250 N   0  0  0  0  0  0  0  0  0  0  0  0
   54.6490   77.1600   29.3840 C   0  0  0  0  0  0  0  0  0  0  0  0
   53.9440   77.6070   28.3010 C   0  0  0  0  0  0  0  0  0  0  0  0
   52.6700   77.2450   28.1060 F   0  0  0  0  0  0  0  0  0  0  0  0
   54.6340   78.4320   27.4410 C   0  0  0  0  0  0  0  0  0  0  0  0
   54.0150   79.0170   26.2600 C   0  0  0  0  0  0  0  0  0  0  0  0
   53.4480   78.3570   25.1840 C   0  0  0  0  0  0  0  0  0  0  0  0
   52.9370   79.2260   24.2690 N   0  0  0  0  0  0  0  0  0  0  0  0
   53.1790   80.4280   24.7450 C   0  0  0  0  0  0  0  0  0  0  0  0
   52.7700   81.6910   24.0760 C   0  0  0  0  0  0  0  0  0  0  0  0
   53.8730   80.3600   25.9470 N   0  0  0  0  0  0  0  0  0  0  0  0
   54.3830   81.5320   26.6590 C   0  0  0  0  0  0  0  0  0  0  0  0
   53.3110   82.5210   27.1230 C   0  0  0  0  0  0  0  0  0  0  0  0
   55.5260   82.2190   25.9120 C   0  0  0  0  0  0  0  0  0  0  0  0
   55.9160   78.8030   27.6540 N   0  0  0  0  0  0  0  0  0  0  0  0
   58.1800   79.9120   30.9910 C   0  0  0  0  0  0  0  0  0  0  0  0
   58.7470   80.9330   31.7650 C   0  0  0  0  0  0  0  0  0  0  0  0
   60.3188   79.7992   33.2085 H   0  0  0  0  0  0  0  0  0  0  0  0
   60.9636   78.8012   34.6979 H   0  0  0  0  0  0  0  0  0  0  0  0
   62.5680   80.4945   36.2546 H   0  0  0  0  0  0  0  0  0  0  0  0
   63.5836   79.4724   35.1820 H   0  0  0  0  0  0  0  0  0  0  0  0
   63.7908   81.2567   35.1820 H   0  0  0  0  0  0  0  0  0  0  0  0
   60.5623   82.4757   29.3299 H   0  0  0  0  0  0  0  0  0  0  0  0
   59.5493   80.6563   27.9712 H   0  0  0  0  0  0  0  0  0  0  0  0
   58.4430   78.1760   28.3300 H   0  0  0  0  0  0  0  0  0  0  0  0
   54.1435   76.4904   30.0954 H   0  0  0  0  0  0  0  0  0  0  0  0
   53.4142   77.2624   25.0805 H   0  0  0  0  0  0  0  0  0  0  0  0
   52.5253   82.4465   24.8371 H   0  0  0  0  0  0  0  0  0  0  0  0
   53.5955   82.0572   23.4479 H   0  0  0  0  0  0  0  0  0  0  0  0
   51.8866   81.5038   23.4479 H   0  0  0  0  0  0  0  0  0  0  0  0
   54.8006   81.1235   27.5911 H   0  0  0  0  0  0  0  0  0  0  0  0
   53.2853   82.5447   28.2224 H   0  0  0  0  0  0  0  0  0  0  0  0
   53.5477   83.5247   26.7400 H   0  0  0  0  0  0  0  0  0  0  0  0
   52.3296   82.2044   26.7400 H   0  0  0  0  0  0  0  0  0  0  0  0
   56.2346   82.6449   26.6376 H   0  0  0  0  0  0  0  0  0  0  0  0
   56.0457   81.4835   25.2804 H   0  0  0  0  0  0  0  0  0  0  0  0
   55.1203   83.0230   25.2804 H   0  0  0  0  0  0  0  0  0  0  0  0
   57.5018   79.1909   31.4706 H   0  0  0  0  0  0  0  0  0  0  0  0
   58.5139   81.0053   32.8376 H   0  0  0  0  0  0  0  0  0  0  0  0
  1  2  2  0
  2  3  1  0
  2  4  1  0
  4  5  2  0
  4  6  1  0
  6  7  2  0
  6  8  1  0
  8  9  2  0
  8 10  1  0
 10 11  1  0
 11 12  2  0
 12 13  1  0
 13 14  1  0
 14 15  1  0
 15 16  2  0
 16 17  1  0
 17 18  2  0
 18 19  1  0
 18 20  1  0
 20 21  1  0
 21 22  2  0
 22 23  1  0
 23 24  2  0
 24 25  1  0
 24 26  1  0
 26 27  1  0
 27 28  1  0
 27 29  1  0
 20 30  2  0
 13 31  2  0
 31 32  1  0
 32 10  2  0
 30 15  1  0
 26 21  1  0
  1 33  1  0
  1 34  1  0
  3 35  1  0
  3 36  1  0
  3 37  1  0
 11 38  1  0
 12 39  1  0
 14 40  1  0
 17 41  1  0
 22 42  1  0
 25 43  1  0
 25 44  1  0
 25 45  1  0
 27 46  1  0
 28 47  1  0
 28 48  1  0
 28 49  1  0
 29 50  1  0
 29 51  1  0
 29 52  1  0
 31 53  1  0
 32 54  1  0
M  END
>  <meeko>  (1) 
{"is_sidechain": false}

>  <smiles>  (1) 
C=C(C)C(=O)C(=O)C(=O)c1ccc(Nc2ncc(F)c(-c3cnc(C)n3C(C)C)n2)cc1

>  <vina_score>  (1) 
-8.910

>  <job_id>  (1) 
4b33414151e0f097

$$$$
