
     RDKit          3D

 61 63  0  0  0  0  0  0  0  0999 V2000
   53.5700   78.7020   24.2500 C   0  0  0  0  0  0  0  0  0  0  0  0
   53.3660   80.1020   24.8180 C   0  0  1  0  0  0  0  0  0  0  0  0
   51.9670   80.2710   25.0630 O   0  0  0  0  0  0  0  0  0  0  0  0
   54.1960   80.4030   26.1020 C   0  0  1  0  0  0  0  0  0  0  0  0
   54.1810   81.8930   26.4590 C   0  0  0  0  0  0  0  0  0  0  0  0
   53.6870   79.6080   27.2310 N   0  0  0  0  0  0  0  0  0  0  0  0
   54.5770   78.7180   27.8620 C   0  0  0  0  0  0  0  0  0  0  0  0
   55.8500   79.1040   28.0860 N   0  0  0  0  0  0  0  0  0  0  0  0
   56.6830   78.2670   28.7290 C   0  0  0  0  0  0  0  0  0  0  0  0
   57.9710   78.7590   28.9180 N   0  0  0  0  0  0  0  0  0  0  0  0
   58.5150   79.8110   29.6610 C   0  0  0  0  0  0  0  0  0  0  0  0
   58.2310   79.8750   31.0370 C   0  0  0  0  0  0  0  0  0  0  0  0
   58.7430   80.8950   31.8440 C   0  0  0  0  0  0  0  0  0  0  0  0
   59.5500   81.8750   31.2720 C   0  0  0  0  0  0  0  0  0  0  0  0
   60.2370   83.1410   32.2740 S   0  0  0  0  0  0  0  0  0  0  0  0
   59.7060   83.0480   33.6160 O   0  0  0  0  0  0  0  0  0  0  0  0
   59.8000   84.9790   31.5130 S   0  0  0  0  0  0  0  0  0  0  0  0
   61.9190   82.8770   32.4520 N   0  0  0  0  0  0  0  0  0  0  0  0
   62.8130   83.7620   31.7990 C   0  0  0  0  0  0  0  0  0  0  0  0
   63.2690   83.5070   30.5000 C   0  0  0  0  0  0  0  0  0  0  0  0
   64.1850   84.3670   29.8890 C   0  0  0  0  0  0  0  0  0  0  0  0
   64.6560   85.4830   30.5860 C   0  0  0  0  0  0  0  0  0  0  0  0
   65.7990   86.5790   29.8020 S   0  0  0  0  0  0  0  0  0  0  0  0
   66.8100   85.7960   29.1080 O   0  0  0  0  0  0  0  0  0  0  0  0
   66.8100   87.6640   31.2460 S   0  0  0  0  0  0  0  0  0  0  0  0
   64.7450   87.8370   28.4690 S   0  0  0  0  0  0  0  0  0  0  0  0
   63.4160   88.0560   29.0190 O   0  0  0  0  0  0  0  0  0  0  0  0
   65.6250   88.9590   28.1740 O   0  0  0  0  0  0  0  0  0  0  0  0
   64.5830   86.9290   27.0850 O   0  0  0  0  0  0  0  0  0  0  0  0
   65.6560   87.0810   26.0810 N   0  0  0  0  0  0  0  0  0  0  0  0
   64.2260   85.7380   31.8910 C   0  0  0  0  0  0  0  0  0  0  0  0
   63.3080   84.8730   32.4920 C   0  0  0  0  0  0  0  0  0  0  0  0
   59.8580   81.8350   29.9140 C   0  0  0  0  0  0  0  0  0  0  0  0
   59.3380   80.8060   29.1190 C   0  0  0  0  0  0  0  0  0  0  0  0
   56.3150   77.0560   29.1650 N   0  0  0  0  0  0  0  0  0  0  0  0
   55.0380   76.6900   28.9440 C   0  0  0  0  0  0  0  0  0  0  0  0
   54.1210   77.4820   28.2980 C   0  0  0  0  0  0  0  0  0  0  0  0
   52.3560   76.8660   28.0280 Br  0  0  0  0  0  0  0  0  0  0  0  0
   53.6748   77.9829   25.0758 H   0  0  0  0  0  0  0  0  0  0  0  0
   52.7024   78.4270   23.6322 H   0  0  0  0  0  0  0  0  0  0  0  0
   54.4800   78.6860   23.6322 H   0  0  0  0  0  0  0  0  0  0  0  0
   53.7371   80.8248   24.0765 H   0  0  0  0  0  0  0  0  0  0  0  0
   51.7430   81.1990   24.8760 H   0  0  0  0  0  0  0  0  0  0  0  0
   55.2393   80.1222   25.8951 H   0  0  0  0  0  0  0  0  0  0  0  0
   54.1798   82.0079   27.5530 H   0  0  0  0  0  0  0  0  0  0  0  0
   55.0743   82.3794   26.0402 H   0  0  0  0  0  0  0  0  0  0  0  0
   53.2781   82.3613   26.0402 H   0  0  0  0  0  0  0  0  0  0  0  0
   52.8220   79.1120   27.0210 H   0  0  0  0  0  0  0  0  0  0  0  0
   58.6130   78.2000   28.3740 H   0  0  0  0  0  0  0  0  0  0  0  0
   57.5903   79.1035   31.4891 H   0  0  0  0  0  0  0  0  0  0  0  0
   58.5110   80.9232   32.9189 H   0  0  0  0  0  0  0  0  0  0  0  0
   62.0820   82.9870   33.4500 H   0  0  0  0  0  0  0  0  0  0  0  0
   62.9034   82.6232   29.9566 H   0  0  0  0  0  0  0  0  0  0  0  0
   64.5335   84.1668   28.8651 H   0  0  0  0  0  0  0  0  0  0  0  0
   65.5270   88.0470   25.7820 H   0  0  0  0  0  0  0  0  0  0  0  0
   66.4900   87.0590   26.6700 H   0  0  0  0  0  0  0  0  0  0  0  0
   64.6068   86.6118   32.4401 H   0  0  0  0  0  0  0  0  0  0  0  0
   62.9706   85.0671   33.5208 H   0  0  0  0  0  0  0  0  0  0  0  0
   60.5047   82.6058   29.4695 H   0  0  0  0  0  0  0  0  0  0  0  0
   59.5811   80.7788   28.0465 H   0  0  0  0  0  0  0  0  0  0  0  0
   54.7115   75.7020   29.3007 H   0  0  0  0  0  0  0  0  0  0  0  0
  1  2  1  0
  2  3  1  0
  2  4  1  0
  4  5  1  0
  4  6  1  0
  6  7  1  0
  7  8  2  0
  8  9  1  0
  9 10  1  0
 10 11  1  0
 11 12  1  0
 12 13  2  0
 13 14  1  0
 14 15  1  0
 15 16  2  0
 15 17  2  0
 15 18  1  0
 18 19  1  0
 19 20  1  0
 20 21  2  0
 21 22  1  0
 22 23  1  0
 23 24  2  0
 23 25  2  0
 23 26  1  0
 26 27  2  0
 26 28  2  0
 26 29  1  0
 29 30  1  0
 22 31  2  0
 31 32  1  0
 14 33  2  0
 33 34  1  0
  9 35  2  0
 35 36  1  0
 36 37  2  0
 37 38  1  0
 37  7  1  0
 34 11  2  0
 32 19  2  0
  1 39  1  0
  1 40  1  0
  1 41  1  0
  2 42  1  6
  3 43  1  0
  4 44  1  6
  5 45  1  0
  5 46  1  0
  5 47  1  0
  6 48  1  0
 10 49  1  0
 12 50  1  0
 13 51  1  0
 18 52  1  0
 20 53  1  0
 21 54  1  0
 30 55  1  0
 30 56  1  0
 31 57  1  0
 32 58  1  0
 33 59  1  0
 34 60  1  0
 36 61  1  0
M  END
>  <meeko>  (1) 
{"is_sidechain": false}

>  <smiles>  (1) 
C[C@@H](O)[C@@H](C)Nc1nc(Nc2ccc(S(=O)(=S)Nc3ccc(S(=O)(=S)S(=O)(=O)ON)cc3)cc2)ncc1Br

>  <vina_score>  (1) 
-7.867

>  <job_id>  (1) 
4b715e06b8588604

$$$$
