
     RDKit          3D

 41 42  0  0  0  0  0  0  0  0999 V2000
   59.5260   81.7600   29.4070 C   0  0  0  0  0  0  0  0  0  0  0  0
   58.9450   80.5310   30.0930 C   0  0  0  0  0  0  0  0  0  0  0  0
   58.5730   79.4120   29.1150 C   0  0  0  0  0  0  0  0  0  0  0  0
   57.1380   79.1070   29.1520 N   0  0  0  0  0  0  0  0  0  0  0  0
   56.6910   78.2030   30.2090 C   0  0  0  0  0  0  0  0  0  0  0  0
   56.2870   79.4270   28.0960 C   0  0  0  0  0  0  0  0  0  0  0  0
   56.5660   80.4640   27.1920 C   0  0  0  0  0  0  0  0  0  0  0  0
   55.7050   80.7930   26.1310 C   0  0  0  0  0  0  0  0  0  0  0  0
   54.5110   80.0950   25.9230 C   0  0  0  0  0  0  0  0  0  0  0  0
   53.6070   80.4370   24.8150 C   0  0  0  0  0  0  0  0  0  0  0  0
   53.2750   81.7770   24.5410 C   0  0  0  0  0  0  0  0  0  0  0  0
   52.4140   82.1070   23.4900 C   0  0  0  0  0  0  0  0  0  0  0  0
   51.8830   81.0940   22.6920 C   0  0  0  0  0  0  0  0  0  0  0  0
   50.7690   81.5020   21.3810 S   0  0  0  0  0  0  0  0  0  0  0  0
   49.2940   81.0070   22.0120 N   0  0  0  0  0  0  0  0  0  0  0  0
   51.0260   80.6390   20.2510 O   0  0  0  0  0  0  0  0  0  0  0  0
   50.6850   82.9370   21.2550 O   0  0  0  0  0  0  0  0  0  0  0  0
   52.1850   79.7560   22.9500 C   0  0  0  0  0  0  0  0  0  0  0  0
   53.0460   79.4350   24.0030 C   0  0  0  0  0  0  0  0  0  0  0  0
   54.2130   79.0630   26.8170 C   0  0  0  0  0  0  0  0  0  0  0  0
   55.0800   78.7440   27.8750 C   0  0  0  0  0  0  0  0  0  0  0  0
   59.8656   82.4783   30.1677 H   0  0  0  0  0  0  0  0  0  0  0  0
   60.3780   81.4609   28.7789 H   0  0  0  0  0  0  0  0  0  0  0  0
   58.7541   82.2286   28.7789 H   0  0  0  0  0  0  0  0  0  0  0  0
   59.6902   80.1417   30.8023 H   0  0  0  0  0  0  0  0  0  0  0  0
   58.0191   80.8455   30.5968 H   0  0  0  0  0  0  0  0  0  0  0  0
   58.8436   79.7258   28.0960 H   0  0  0  0  0  0  0  0  0  0  0  0
   59.1218   78.5054   29.4098 H   0  0  0  0  0  0  0  0  0  0  0  0
   56.9114   78.6487   31.1902 H   0  0  0  0  0  0  0  0  0  0  0  0
   55.6074   78.0379   30.1163 H   0  0  0  0  0  0  0  0  0  0  0  0
   57.2176   77.2417   30.1163 H   0  0  0  0  0  0  0  0  0  0  0  0
   57.4938   81.0411   27.3188 H   0  0  0  0  0  0  0  0  0  0  0  0
   55.9752   81.6148   25.4515 H   0  0  0  0  0  0  0  0  0  0  0  0
   53.6999   82.5778   25.1640 H   0  0  0  0  0  0  0  0  0  0  0  0
   52.1572   83.1585   23.2939 H   0  0  0  0  0  0  0  0  0  0  0  0
   49.1220   80.0320   21.7640 H   0  0  0  0  0  0  0  0  0  0  0  0
   49.2680   81.1900   23.0150 H   0  0  0  0  0  0  0  0  0  0  0  0
   51.7485   78.9599   22.3290 H   0  0  0  0  0  0  0  0  0  0  0  0
   53.2891   78.3805   24.2001 H   0  0  0  0  0  0  0  0  0  0  0  0
   53.2826   78.4902   26.6898 H   0  0  0  0  0  0  0  0  0  0  0  0
   54.8027   77.9270   28.5574 H   0  0  0  0  0  0  0  0  0  0  0  0
  1  2  1  0
  2  3  1  0
  3  4  1  0
  4  5  1  0
  4  6  1  0
  6  7  1  0
  7  8  2  0
  8  9  1  0
  9 10  1  0
 10 11  1  0
 11 12  2  0
 12 13  1  0
 13 14  1  0
 14 15  1  0
 14 16  2  0
 14 17  2  0
 13 18  2  0
 18 19  1  0
  9 20  2  0
 20 21  1  0
 21  6  2  0
 19 10  2  0
  1 22  1  0
  1 23  1  0
  1 24  1  0
  2 25  1  0
  2 26  1  0
  3 27  1  0
  3 28  1  0
  5 29  1  0
  5 30  1  0
  5 31  1  0
  7 32  1  0
  8 33  1  0
 11 34  1  0
 12 35  1  0
 15 36  1  0
 15 37  1  0
 18 38  1  0
 19 39  1  0
 20 40  1  0
 21 41  1  0
M  END
>  <meeko>  (1) 
{"is_sidechain": false}

>  <smiles>  (1) 
CCCN(C)c1ccc(-c2ccc(S(N)(=O)=O)cc2)cc1

>  <vina_score>  (1) 
-7.306

>  <job_id>  (1) 
4bbfe80b2d923a38

$$$$
