
     RDKit          3D

 49 51  0  0  0  0  0  0  0  0999 V2000
   55.7330   79.0210   27.9490 C   0  0  0  0  0  0  0  0  0  0  0  0
   56.5940   78.2370   28.9350 C   0  0  0  0  0  0  0  0  0  0  0  0
   55.8130   77.0630   29.5190 C   0  0  0  0  0  0  0  0  0  0  0  0
   57.0650   79.1140   29.9990 N   0  0  0  0  0  0  0  0  0  0  0  0
   58.2490   79.8150   29.8890 C   0  0  0  0  0  0  0  0  0  0  0  0
   58.9430   79.8200   28.8790 O   0  0  0  0  0  0  0  0  0  0  0  0
   58.6500   80.6200   31.0750 C   0  0  0  0  0  0  0  0  0  0  0  0
   57.8100   80.7780   32.1800 C   0  0  0  0  0  0  0  0  0  0  0  0
   58.2340   81.5390   33.2700 C   0  0  0  0  0  0  0  0  0  0  0  0
   59.4990   82.1360   33.2580 C   0  0  0  0  0  0  0  0  0  0  0  0
   59.8930   82.8560   34.3560 O   0  0  0  0  0  0  0  0  0  0  0  0
   60.3740   81.9920   32.1640 C   0  0  0  0  0  0  0  0  0  0  0  0
   61.7200   82.6010   32.1080 C   0  0  0  0  0  0  0  0  0  0  0  0
   62.3430   82.9520   30.9310 C   0  0  0  0  0  0  0  0  0  0  0  0
   63.5990   83.4910   31.0470 C   0  0  0  0  0  0  0  0  0  0  0  0
   64.3110   83.8370   29.8950 N   0  0  0  0  0  0  0  0  0  0  0  0
   64.3530   85.0800   29.5320 C   0  0  0  0  0  0  0  0  0  0  0  0
   65.1400   85.4820   28.3100 C   0  0  0  0  0  0  0  0  0  0  0  0
   65.1450   87.0000   28.4280 C   0  0  0  0  0  0  0  0  0  0  0  0
   63.8250   87.3310   29.1120 C   0  0  0  0  0  0  0  0  0  0  0  0
   63.6720   86.2600   30.1850 C   0  0  0  0  0  0  0  0  0  0  0  0
   64.2350   83.6530   32.2160 N   0  0  0  0  0  0  0  0  0  0  0  0
   63.5570   83.2920   33.3010 C   0  0  0  0  0  0  0  0  0  0  0  0
   64.1850   83.4340   34.5220 N   0  0  0  0  0  0  0  0  0  0  0  0
   62.3350   82.7600   33.3020 N   0  0  0  0  0  0  0  0  0  0  0  0
   59.9240   81.2080   31.0820 C   0  0  0  0  0  0  0  0  0  0  0  0
   55.0306   79.6606   28.5035 H   0  0  0  0  0  0  0  0  0  0  0  0
   56.3786   79.6479   27.3163 H   0  0  0  0  0  0  0  0  0  0  0  0
   55.1692   78.3197   27.3163 H   0  0  0  0  0  0  0  0  0  0  0  0
   57.4647   77.8363   28.3952 H   0  0  0  0  0  0  0  0  0  0  0  0
   55.8452   77.1114   30.6175 H   0  0  0  0  0  0  0  0  0  0  0  0
   54.7677   77.1132   29.1802 H   0  0  0  0  0  0  0  0  0  0  0  0
   56.2633   76.1183   29.1802 H   0  0  0  0  0  0  0  0  0  0  0  0
   56.5130   79.1830   30.8410 H   0  0  0  0  0  0  0  0  0  0  0  0
   56.8174   80.3040   32.1908 H   0  0  0  0  0  0  0  0  0  0  0  0
   57.5729   81.6696   34.1395 H   0  0  0  0  0  0  0  0  0  0  0  0
   59.1510   83.3970   34.6700 H   0  0  0  0  0  0  0  0  0  0  0  0
   61.8605   82.8082   29.9530 H   0  0  0  0  0  0  0  0  0  0  0  0
   66.1614   85.0746   28.3395 H   0  0  0  0  0  0  0  0  0  0  0  0
   64.7166   85.1101   27.3653 H   0  0  0  0  0  0  0  0  0  0  0  0
   65.9952   87.3403   29.0373 H   0  0  0  0  0  0  0  0  0  0  0  0
   65.2473   87.4962   27.4516 H   0  0  0  0  0  0  0  0  0  0  0  0
   63.8623   88.3327   29.5650 H   0  0  0  0  0  0  0  0  0  0  0  0
   62.9801   87.3411   28.4077 H   0  0  0  0  0  0  0  0  0  0  0  0
   64.1779   86.5504   31.1176 H   0  0  0  0  0  0  0  0  0  0  0  0
   62.6304   86.0686   30.4823 H   0  0  0  0  0  0  0  0  0  0  0  0
   65.1720   83.5940   34.3750 H   0  0  0  0  0  0  0  0  0  0  0  0
   63.6860   84.1130   35.0800 H   0  0  0  0  0  0  0  0  0  0  0  0
   60.5896   81.0531   30.2201 H   0  0  0  0  0  0  0  0  0  0  0  0
  1  2  1  0
  2  3  1  0
  2  4  1  0
  4  5  1  0
  5  6  2  0
  5  7  1  0
  7  8  1  0
  8  9  2  0
  9 10  1  0
 10 11  1  0
 10 12  2  0
 12 13  1  0
 13 14  1  0
 14 15  2  0
 15 16  1  0
 16 17  2  3
 17 18  1  0
 18 19  1  0
 19 20  1  0
 20 21  1  0
 15 22  1  0
 22 23  2  0
 23 24  1  0
 23 25  1  0
 12 26  1  0
 26  7  2  0
 25 13  2  0
 21 17  1  0
  1 27  1  0
  1 28  1  0
  1 29  1  0
  2 30  1  0
  3 31  1  0
  3 32  1  0
  3 33  1  0
  4 34  1  0
  8 35  1  0
  9 36  1  0
 11 37  1  0
 14 38  1  0
 18 39  1  0
 18 40  1  0
 19 41  1  0
 19 42  1  0
 20 43  1  0
 20 44  1  0
 21 45  1  0
 21 46  1  0
 24 47  1  0
 24 48  1  0
 26 49  1  0
M  END
>  <meeko>  (1) 
{"is_sidechain": false}

>  <smiles>  (1) 
CC(C)NC(=O)c1ccc(O)c(-c2cc(N=C3CCCC3)nc(N)n2)c1

>  <vina_score>  (1) 
-7.385

>  <job_id>  (1) 
4be72c78e68febbc

$$$$
