
     RDKit          3D

 40 41  0  0  0  0  0  0  0  0999 V2000
   61.1830   82.3990   30.2710 C   0  0  0  0  0  0  0  0  0  0  0  0
   60.0750   81.9840   31.2040 C   0  0  0  0  0  0  0  0  0  0  0  0
   59.8970   82.7110   32.3940 C   0  0  0  0  0  0  0  0  0  0  0  0
   58.8740   82.3900   33.2800 C   0  0  0  0  0  0  0  0  0  0  0  0
   58.0120   81.3450   32.9810 C   0  0  0  0  0  0  0  0  0  0  0  0
   58.1840   80.6100   31.8040 C   0  0  0  0  0  0  0  0  0  0  0  0
   59.2340   80.8830   30.9130 C   0  0  0  0  0  0  0  0  0  0  0  0
   59.3970   80.1990   29.6960 N   0  0  0  0  0  0  0  0  0  0  0  0
   58.5400   80.5430   28.5420 C   0  0  0  0  0  0  0  0  0  0  0  0
   57.6680   79.3400   28.1390 C   0  0  0  0  0  0  0  0  0  0  0  0
   58.1700   78.2430   27.9220 O   0  0  0  0  0  0  0  0  0  0  0  0
   56.3190   79.6590   28.1500 N   0  0  0  0  0  0  0  0  0  0  0  0
   55.2110   78.8190   27.8990 C   0  0  0  0  0  0  0  0  0  0  0  0
   54.8460   77.7250   28.7130 C   0  0  0  0  0  0  0  0  0  0  0  0
   55.6380   77.2320   29.8930 C   0  0  0  0  0  0  0  0  0  0  0  0
   53.6870   76.9900   28.3960 C   0  0  0  0  0  0  0  0  0  0  0  0
   52.9340   77.2790   27.2630 C   0  0  0  0  0  0  0  0  0  0  0  0
   53.3310   78.3090   26.4200 C   0  0  0  0  0  0  0  0  0  0  0  0
   54.4650   79.0820   26.7200 C   0  0  0  0  0  0  0  0  0  0  0  0
   54.8210   80.2000   25.7720 C   0  0  0  0  0  0  0  0  0  0  0  0
   62.0540   82.7252   30.8583 H   0  0  0  0  0  0  0  0  0  0  0  0
   61.4670   81.5463   29.6368 H   0  0  0  0  0  0  0  0  0  0  0  0
   60.8369   83.2285   29.6368 H   0  0  0  0  0  0  0  0  0  0  0  0
   60.5756   83.5446   32.6275 H   0  0  0  0  0  0  0  0  0  0  0  0
   58.7493   82.9611   34.2118 H   0  0  0  0  0  0  0  0  0  0  0  0
   57.1924   81.0944   33.6705 H   0  0  0  0  0  0  0  0  0  0  0  0
   57.4795   79.7981   31.5705 H   0  0  0  0  0  0  0  0  0  0  0  0
   59.3740   79.1930   29.8660 H   0  0  0  0  0  0  0  0  0  0  0  0
   57.8889   81.3869   28.8137 H   0  0  0  0  0  0  0  0  0  0  0  0
   59.1820   80.8171   27.6919 H   0  0  0  0  0  0  0  0  0  0  0  0
   56.1460   80.5210   28.6610 H   0  0  0  0  0  0  0  0  0  0  0  0
   55.1404   77.5418   30.8238 H   0  0  0  0  0  0  0  0  0  0  0  0
   55.7018   76.1344   29.8590 H   0  0  0  0  0  0  0  0  0  0  0  0
   56.6510   77.6594   29.8590 H   0  0  0  0  0  0  0  0  0  0  0  0
   53.3709   76.1705   29.0582 H   0  0  0  0  0  0  0  0  0  0  0  0
   52.0296   76.6955   27.0359 H   0  0  0  0  0  0  0  0  0  0  0  0
   52.7521   78.5214   25.5091 H   0  0  0  0  0  0  0  0  0  0  0  0
   55.1053   81.0928   26.3482 H   0  0  0  0  0  0  0  0  0  0  0  0
   55.6645   79.8887   25.1382 H   0  0  0  0  0  0  0  0  0  0  0  0
   53.9529   80.4337   25.1382 H   0  0  0  0  0  0  0  0  0  0  0  0
  1  2  1  0
  2  3  2  0
  3  4  1  0
  4  5  2  0
  5  6  1  0
  6  7  2  0
  7  8  1  0
  8  9  1  0
  9 10  1  0
 10 11  2  0
 10 12  1  0
 12 13  1  0
 13 14  2  0
 14 15  1  0
 14 16  1  0
 16 17  2  0
 17 18  1  0
 18 19  2  0
 19 20  1  0
  7  2  1  0
 19 13  1  0
  1 21  1  0
  1 22  1  0
  1 23  1  0
  3 24  1  0
  4 25  1  0
  5 26  1  0
  6 27  1  0
  8 28  1  0
  9 29  1  0
  9 30  1  0
 12 31  1  0
 15 32  1  0
 15 33  1  0
 15 34  1  0
 16 35  1  0
 17 36  1  0
 18 37  1  0
 20 38  1  0
 20 39  1  0
 20 40  1  0
M  END
>  <meeko>  (1) 
{"is_sidechain": false}

>  <smiles>  (1) 
Cc1ccccc1NCC(=O)Nc1c(C)cccc1C

>  <vina_score>  (1) 
-7.779

>  <job_id>  (1) 
4c464dd7e332f202

$$$$
