
     RDKit          3D

 37 38  0  0  0  0  0  0  0  0999 V2000
   58.4110   80.6080   31.7720 C   0  0  0  0  0  0  0  0  0  0  0  0
   58.9880   80.9520   30.4060 C   0  0  0  0  0  0  0  0  0  0  0  0
   58.7980   79.8570   29.3550 C   0  0  0  0  0  0  0  0  0  0  0  0
   57.3350   78.7930   29.6280 S   0  0  0  0  0  0  0  0  0  0  0  0
   56.3100   79.2850   28.2560 C   0  0  0  0  0  0  0  0  0  0  0  0
   56.7330   80.2420   27.3330 C   0  0  0  0  0  0  0  0  0  0  0  0
   55.9030   80.6160   26.2700 C   0  0  0  0  0  0  0  0  0  0  0  0
   54.6280   80.0490   26.1110 C   0  0  0  0  0  0  0  0  0  0  0  0
   53.7560   80.4450   24.9930 C   0  0  0  0  0  0  0  0  0  0  0  0
   53.3920   81.7890   24.8030 C   0  0  0  0  0  0  0  0  0  0  0  0
   52.5620   82.1690   23.7440 C   0  0  0  0  0  0  0  0  0  0  0  0
   52.0910   81.1990   22.8580 C   0  0  0  0  0  0  0  0  0  0  0  0
   51.0330   81.6850   21.5220 S   0  0  0  0  0  0  0  0  0  0  0  0
   49.5100   81.3570   22.1650 N   0  0  0  0  0  0  0  0  0  0  0  0
   51.2520   80.7870   20.4140 O   0  0  0  0  0  0  0  0  0  0  0  0
   51.0940   83.1220   21.3850 O   0  0  0  0  0  0  0  0  0  0  0  0
   52.4250   79.8560   23.0310 C   0  0  0  0  0  0  0  0  0  0  0  0
   53.2570   79.4870   24.0930 C   0  0  0  0  0  0  0  0  0  0  0  0
   54.2090   79.1000   27.0560 C   0  0  0  0  0  0  0  0  0  0  0  0
   55.0390   78.7250   28.1190 C   0  0  0  0  0  0  0  0  0  0  0  0
   59.0714   81.0017   32.5587 H   0  0  0  0  0  0  0  0  0  0  0  0
   57.4124   81.0583   31.8722 H   0  0  0  0  0  0  0  0  0  0  0  0
   58.3323   79.5154   31.8722 H   0  0  0  0  0  0  0  0  0  0  0  0
   58.4971   81.8674   30.0440 H   0  0  0  0  0  0  0  0  0  0  0  0
   60.0724   81.0772   30.5417 H   0  0  0  0  0  0  0  0  0  0  0  0
   58.6945   80.3385   28.3714 H   0  0  0  0  0  0  0  0  0  0  0  0
   59.6792   79.2020   29.4213 H   0  0  0  0  0  0  0  0  0  0  0  0
   57.7248   80.7053   27.4414 H   0  0  0  0  0  0  0  0  0  0  0  0
   56.2551   81.3665   25.5470 H   0  0  0  0  0  0  0  0  0  0  0  0
   53.7662   82.5545   25.4988 H   0  0  0  0  0  0  0  0  0  0  0  0
   52.2824   83.2244   23.6102 H   0  0  0  0  0  0  0  0  0  0  0  0
   49.5290   80.6690   22.9160 H   0  0  0  0  0  0  0  0  0  0  0  0
   49.0830   82.2360   22.4630 H   0  0  0  0  0  0  0  0  0  0  0  0
   52.0377   79.0940   22.3386 H   0  0  0  0  0  0  0  0  0  0  0  0
   53.5257   78.4287   24.2264 H   0  0  0  0  0  0  0  0  0  0  0  0
   53.2128   78.6436   26.9599 H   0  0  0  0  0  0  0  0  0  0  0  0
   54.6870   77.9837   28.8515 H   0  0  0  0  0  0  0  0  0  0  0  0
  1  2  1  0
  2  3  1  0
  3  4  1  0
  4  5  1  0
  5  6  1  0
  6  7  2  0
  7  8  1  0
  8  9  1  0
  9 10  1  0
 10 11  2  0
 11 12  1  0
 12 13  1  0
 13 14  1  0
 13 15  2  0
 13 16  2  0
 12 17  2  0
 17 18  1  0
  8 19  2  0
 19 20  1  0
 20  5  2  0
 18  9  2  0
  1 21  1  0
  1 22  1  0
  1 23  1  0
  2 24  1  0
  2 25  1  0
  3 26  1  0
  3 27  1  0
  6 28  1  0
  7 29  1  0
 10 30  1  0
 11 31  1  0
 14 32  1  0
 14 33  1  0
 17 34  1  0
 18 35  1  0
 19 36  1  0
 20 37  1  0
M  END
>  <meeko>  (1) 
{"is_sidechain": false}

>  <smiles>  (1) 
CCCSc1ccc(-c2ccc(S(N)(=O)=O)cc2)cc1

>  <vina_score>  (1) 
-7.455

>  <job_id>  (1) 
4c6ad1d2dd9275b6

$$$$
