
     RDKit          3D

 30 32  0  0  0  0  0  0  0  0999 V2000
   53.7380   83.9970   25.7700 C   0  0  0  0  0  0  0  0  0  0  0  0
   52.5600   83.1950   25.5280 N   0  0  0  0  0  0  0  0  0  0  0  0
   52.8130   81.8950   25.1250 C   0  0  0  0  0  0  0  0  0  0  0  0
   52.8080   81.5690   23.8300 N   0  0  0  0  0  0  0  0  0  0  0  0
   53.0450   80.2830   23.5260 C   0  0  0  0  0  0  0  0  0  0  0  0
   53.2960   79.3120   24.4650 C   0  0  0  0  0  0  0  0  0  0  0  0
   53.2930   79.7310   25.7800 C   0  0  0  0  0  0  0  0  0  0  0  0
   53.5470   78.7930   26.8440 N   0  0  0  0  0  0  0  0  0  0  0  0
   52.6790   77.8000   27.2700 C   0  0  0  0  0  0  0  0  0  0  0  0
   53.2590   77.0880   28.2910 C   0  0  0  0  0  0  0  0  0  0  0  0
   54.5350   77.6460   28.5300 C   0  0  0  0  0  0  0  0  0  0  0  0
   55.5600   77.3310   29.4450 C   0  0  0  0  0  0  0  0  0  0  0  0
   56.7410   78.0800   29.4530 C   0  0  0  0  0  0  0  0  0  0  0  0
   56.9090   79.1370   28.5620 C   0  0  0  0  0  0  0  0  0  0  0  0
   58.1260   79.8970   28.5790 C   0  0  0  0  0  0  0  0  0  0  0  0
   59.1140   80.5070   28.5930 N   0  0  0  0  0  0  0  0  0  0  0  0
   55.8990   79.4650   27.6450 C   0  0  0  0  0  0  0  0  0  0  0  0
   54.7070   78.7080   27.6310 C   0  0  0  0  0  0  0  0  0  0  0  0
   53.0570   81.0200   26.1090 N   0  0  0  0  0  0  0  0  0  0  0  0
   53.8933   84.1027   26.8538 H   0  0  0  0  0  0  0  0  0  0  0  0
   54.6140   83.5069   25.3202 H   0  0  0  0  0  0  0  0  0  0  0  0
   53.6031   84.9917   25.3202 H   0  0  0  0  0  0  0  0  0  0  0  0
   51.9050   83.1410   26.3000 H   0  0  0  0  0  0  0  0  0  0  0  0
   53.0378   79.9903   22.4657 H   0  0  0  0  0  0  0  0  0  0  0  0
   53.4875   78.2653   24.1860 H   0  0  0  0  0  0  0  0  0  0  0  0
   51.6784   77.6111   26.8539 H   0  0  0  0  0  0  0  0  0  0  0  0
   52.8114   76.2374   28.8259 H   0  0  0  0  0  0  0  0  0  0  0  0
   55.4312   76.4977   30.1514 H   0  0  0  0  0  0  0  0  0  0  0  0
   57.5410   77.8331   30.1665 H   0  0  0  0  0  0  0  0  0  0  0  0
   56.0342   80.3025   26.9448 H   0  0  0  0  0  0  0  0  0  0  0  0
  1  2  1  0
  2  3  1  0
  3  4  2  0
  4  5  1  0
  5  6  2  0
  6  7  1  0
  7  8  1  0
  8  9  1  0
  9 10  2  0
 10 11  1  0
 11 12  2  0
 12 13  1  0
 13 14  2  0
 14 15  1  0
 15 16  3  0
 14 17  1  0
 17 18  2  0
  7 19  2  0
 19  3  1  0
 18  8  1  0
 18 11  1  0
  1 20  1  0
  1 21  1  0
  1 22  1  0
  2 23  1  0
  5 24  1  0
  6 25  1  0
  9 26  1  0
 10 27  1  0
 12 28  1  0
 13 29  1  0
 17 30  1  0
M  END
>  <meeko>  (1) 
{"is_sidechain": false}

>  <smiles>  (1) 
CNc1nccc(-n2ccc3ccc(C#N)cc32)n1

>  <vina_score>  (1) 
-8.199

>  <job_id>  (1) 
4cd77ae9d5d1dcd9

$$$$
