
     RDKit          3D

 45 48  0  0  0  0  0  0  0  0999 V2000
   52.3750   75.5960   26.5570 C   0  0  0  0  0  0  0  0  0  0  0  0
   52.3650   76.6860   27.5970 C   0  0  0  0  0  0  0  0  0  0  0  0
   51.4410   76.7910   28.4050 O   0  0  0  0  0  0  0  0  0  0  0  0
   53.5170   77.6380   27.6310 C   0  0  0  0  0  0  0  0  0  0  0  0
   54.6110   77.3500   28.3690 C   0  0  0  0  0  0  0  0  0  0  0  0
   54.8120   76.0710   29.1440 C   0  0  0  0  0  0  0  0  0  0  0  0
   55.6960   78.3480   28.4050 C   0  0  0  0  0  0  0  0  0  0  0  0
   56.8560   78.2080   29.1420 C   0  0  0  0  0  0  0  0  0  0  0  0
   57.8550   79.1070   29.1680 N   0  0  0  0  0  0  0  0  0  0  0  0
   57.7120   80.2120   28.4360 C   0  0  0  0  0  0  0  0  0  0  0  0
   58.6830   81.2070   28.3880 N   0  0  0  0  0  0  0  0  0  0  0  0
   59.1900   81.9880   29.3550 C   0  0  0  0  0  0  0  0  0  0  0  0
   60.4160   81.8200   29.9520 C   0  0  0  0  0  0  0  0  0  0  0  0
   60.5730   82.8050   30.8810 O   0  0  0  0  0  0  0  0  0  0  0  0
   59.4160   83.5160   30.7870 C   0  0  0  0  0  0  0  0  0  0  0  0
   58.5600   83.0710   29.8950 N   0  0  0  0  0  0  0  0  0  0  0  0
   56.6210   80.4480   27.6940 N   0  0  0  0  0  0  0  0  0  0  0  0
   55.6280   79.5300   27.6860 C   0  0  0  0  0  0  0  0  0  0  0  0
   54.4680   79.8000   26.9040 N   0  0  0  0  0  0  0  0  0  0  0  0
   54.4180   81.0510   26.1300 C   0  0  0  0  0  0  0  0  0  0  0  0
   53.6140   82.1880   26.7970 C   0  0  0  0  0  0  0  0  0  0  0  0
   52.5700   82.6190   25.7690 C   0  0  0  0  0  0  0  0  0  0  0  0
   53.1720   82.2210   24.4310 C   0  0  0  0  0  0  0  0  0  0  0  0
   53.8170   80.8770   24.7260 C   0  0  0  0  0  0  0  0  0  0  0  0
   53.4180   78.8950   26.8330 C   0  0  0  0  0  0  0  0  0  0  0  0
   52.4150   79.0770   26.1440 O   0  0  0  0  0  0  0  0  0  0  0  0
   52.3840   74.6148   27.0542 H   0  0  0  0  0  0  0  0  0  0  0  0
   51.4760   75.6804   25.9287 H   0  0  0  0  0  0  0  0  0  0  0  0
   53.2723   75.6969   25.9287 H   0  0  0  0  0  0  0  0  0  0  0  0
   54.7781   76.2864   30.2222 H   0  0  0  0  0  0  0  0  0  0  0  0
   54.0149   75.3577   28.8874 H   0  0  0  0  0  0  0  0  0  0  0  0
   55.7894   75.6365   28.8874 H   0  0  0  0  0  0  0  0  0  0  0  0
   56.9700   77.2981   29.7495 H   0  0  0  0  0  0  0  0  0  0  0  0
   58.9970   81.2880   27.4310 H   0  0  0  0  0  0  0  0  0  0  0  0
   61.1440   81.0285   29.7206 H   0  0  0  0  0  0  0  0  0  0  0  0
   59.2126   84.3982   31.4118 H   0  0  0  0  0  0  0  0  0  0  0  0
   55.4818   81.3258   26.0762 H   0  0  0  0  0  0  0  0  0  0  0  0
   53.1232   81.8243   27.7118 H   0  0  0  0  0  0  0  0  0  0  0  0
   54.2642   83.0259   27.0889 H   0  0  0  0  0  0  0  0  0  0  0  0
   51.6173   82.0958   25.9385 H   0  0  0  0  0  0  0  0  0  0  0  0
   52.3448   83.6943   25.8248 H   0  0  0  0  0  0  0  0  0  0  0  0
   52.3924   82.1238   23.6611 H   0  0  0  0  0  0  0  0  0  0  0  0
   53.8828   82.9638   24.0399 H   0  0  0  0  0  0  0  0  0  0  0  0
   53.0659   80.0734   24.7194 H   0  0  0  0  0  0  0  0  0  0  0  0
   54.5706   80.5961   23.9755 H   0  0  0  0  0  0  0  0  0  0  0  0
  1  2  1  0
  2  3  2  0
  2  4  1  0
  4  5  2  0
  5  6  1  0
  5  7  1  0
  7  8  2  0
  8  9  1  0
  9 10  2  0
 10 11  1  0
 11 12  1  0
 12 13  2  0
 13 14  1  0
 14 15  1  0
 15 16  2  0
 10 17  1  0
 17 18  2  0
 18 19  1  0
 19 20  1  0
 20 21  1  0
 21 22  1  0
 22 23  1  0
 23 24  1  0
 19 25  1  0
 25 26  2  0
 25  4  1  0
 18  7  1  0
 24 20  1  0
 16 12  1  0
  1 27  1  0
  1 28  1  0
  1 29  1  0
  6 30  1  0
  6 31  1  0
  6 32  1  0
  8 33  1  0
 11 34  1  0
 13 35  1  0
 15 36  1  0
 20 37  1  0
 21 38  1  0
 21 39  1  0
 22 40  1  0
 22 41  1  0
 23 42  1  0
 23 43  1  0
 24 44  1  0
 24 45  1  0
M  END
>  <meeko>  (1) 
{"is_sidechain": false}

>  <smiles>  (1) 
CC(=O)c1c(C)c2cnc(Nc3cocn3)nc2n(C2CCCC2)c1=O

>  <vina_score>  (1) 
-8.913

>  <job_id>  (1) 
4d7832dcaf88bc34

$$$$
