
     RDKit          3D

 46 48  0  0  0  0  0  0  0  0999 V2000
   59.1150   81.3570   34.3950 C   0  0  0  0  0  0  0  0  0  0  0  0
   58.7810   81.3620   32.9810 N   0  0  0  0  0  0  0  0  0  0  0  0
   58.1850   82.5890   32.4710 C   0  0  0  0  0  0  0  0  0  0  0  0
   59.3100   80.3490   32.1820 C   0  0  0  0  0  0  0  0  0  0  0  0
   60.0950   79.4980   32.5910 O   0  0  0  0  0  0  0  0  0  0  0  0
   58.8940   80.2650   30.7660 C   0  0  0  0  0  0  0  0  0  0  0  0
   59.6170   80.9380   29.7770 C   0  0  0  0  0  0  0  0  0  0  0  0
   59.1900   80.8740   28.4530 C   0  0  0  0  0  0  0  0  0  0  0  0
   58.0390   80.1490   28.1250 C   0  0  0  0  0  0  0  0  0  0  0  0
   57.2890   79.4830   29.1110 C   0  0  0  0  0  0  0  0  0  0  0  0
   56.0750   78.7310   28.7580 C   0  0  0  0  0  0  0  0  0  0  0  0
   55.6940   77.5890   29.4860 C   0  0  0  0  0  0  0  0  0  0  0  0
   54.5500   76.8590   29.1450 C   0  0  0  0  0  0  0  0  0  0  0  0
   53.7580   77.2680   28.0760 C   0  0  0  0  0  0  0  0  0  0  0  0
   54.1090   78.4140   27.3600 C   0  0  0  0  0  0  0  0  0  0  0  0
   53.2960   78.8640   26.2120 C   0  0  0  0  0  0  0  0  0  0  0  0
   52.9350   78.0240   25.3930 O   0  0  0  0  0  0  0  0  0  0  0  0
   53.0060   80.2100   26.1050 N   0  0  0  0  0  0  0  0  0  0  0  0
   53.5640   81.3000   26.8950 C   0  0  0  0  0  0  0  0  0  0  0  0
   52.8630   82.5440   26.3680 C   0  0  0  0  0  0  0  0  0  0  0  0
   52.6060   82.1970   24.9080 C   0  0  0  0  0  0  0  0  0  0  0  0
   52.2610   80.7160   24.9640 C   0  0  0  0  0  0  0  0  0  0  0  0
   55.2680   79.1300   27.6820 C   0  0  0  0  0  0  0  0  0  0  0  0
   57.7300   79.5580   30.4410 C   0  0  0  0  0  0  0  0  0  0  0  0
   58.1901   81.3708   34.9903 H   0  0  0  0  0  0  0  0  0  0  0  0
   59.6905   80.4501   34.6326 H   0  0  0  0  0  0  0  0  0  0  0  0
   59.7173   82.2462   34.6326 H   0  0  0  0  0  0  0  0  0  0  0  0
   57.8763   83.2246   33.3140 H   0  0  0  0  0  0  0  0  0  0  0  0
   58.9222   83.1270   31.8569 H   0  0  0  0  0  0  0  0  0  0  0  0
   57.3064   82.3422   31.8569 H   0  0  0  0  0  0  0  0  0  0  0  0
   60.5161   81.5136   30.0424 H   0  0  0  0  0  0  0  0  0  0  0  0
   59.7569   81.3928   27.6659 H   0  0  0  0  0  0  0  0  0  0  0  0
   57.7143   80.0989   27.0752 H   0  0  0  0  0  0  0  0  0  0  0  0
   56.3071   77.2638   30.3395 H   0  0  0  0  0  0  0  0  0  0  0  0
   54.2768   75.9627   29.7212 H   0  0  0  0  0  0  0  0  0  0  0  0
   52.8626   76.6929   27.7975 H   0  0  0  0  0  0  0  0  0  0  0  0
   53.3498   81.1556   27.9642 H   0  0  0  0  0  0  0  0  0  0  0  0
   54.6585   81.3653   26.8068 H   0  0  0  0  0  0  0  0  0  0  0  0
   51.9194   82.7236   26.9041 H   0  0  0  0  0  0  0  0  0  0  0  0
   53.4529   83.4632   26.4986 H   0  0  0  0  0  0  0  0  0  0  0  0
   51.7676   82.7833   24.5039 H   0  0  0  0  0  0  0  0  0  0  0  0
   53.4613   82.4185   24.2527 H   0  0  0  0  0  0  0  0  0  0  0  0
   51.1802   80.5742   25.1118 H   0  0  0  0  0  0  0  0  0  0  0  0
   52.5180   80.1918   24.0317 H   0  0  0  0  0  0  0  0  0  0  0  0
   55.5480   80.0118   27.0871 H   0  0  0  0  0  0  0  0  0  0  0  0
   57.1565   79.0572   31.2349 H   0  0  0  0  0  0  0  0  0  0  0  0
  1  2  1  0
  2  3  1  0
  2  4  1  0
  4  5  2  0
  4  6  1  0
  6  7  1  0
  7  8  2  0
  8  9  1  0
  9 10  2  0
 10 11  1  0
 11 12  2  0
 12 13  1  0
 13 14  2  0
 14 15  1  0
 15 16  1  0
 16 17  2  0
 16 18  1  0
 18 19  1  0
 19 20  1  0
 20 21  1  0
 21 22  1  0
 15 23  2  0
 10 24  1  0
 24  6  2  0
 23 11  1  0
 22 18  1  0
  1 25  1  0
  1 26  1  0
  1 27  1  0
  3 28  1  0
  3 29  1  0
  3 30  1  0
  7 31  1  0
  8 32  1  0
  9 33  1  0
 12 34  1  0
 13 35  1  0
 14 36  1  0
 19 37  1  0
 19 38  1  0
 20 39  1  0
 20 40  1  0
 21 41  1  0
 21 42  1  0
 22 43  1  0
 22 44  1  0
 23 45  1  0
 24 46  1  0
M  END
>  <meeko>  (1) 
{"is_sidechain": false}

>  <smiles>  (1) 
CN(C)C(=O)c1cccc(-c2cccc(C(=O)N3CCCC3)c2)c1

>  <vina_score>  (1) 
-8.720

>  <job_id>  (1) 
4d999f1d711e62b2

$$$$
