
     RDKit          3D

 37 38  0  0  0  0  0  0  0  0999 V2000
   60.4440   83.1650   31.3860 C   0  0  0  0  0  0  0  0  0  0  0  0
   59.8640   82.1080   30.5190 C   0  0  0  0  0  0  0  0  0  0  0  0
   59.9640   82.1210   29.2070 N   0  0  0  0  0  0  0  0  0  0  0  0
   59.3220   81.0010   28.7700 C   0  0  0  0  0  0  0  0  0  0  0  0
   58.8140   80.2650   29.8200 C   0  0  0  0  0  0  0  0  0  0  0  0
   58.1040   79.1070   29.8660 N   0  0  0  0  0  0  0  0  0  0  0  0
   56.8690   78.8370   29.2370 C   0  0  0  0  0  0  0  0  0  0  0  0
   55.9350   77.9250   29.7440 C   0  0  0  0  0  0  0  0  0  0  0  0
   54.7380   77.6600   29.0630 C   0  0  0  0  0  0  0  0  0  0  0  0
   54.4540   78.2980   27.8510 C   0  0  0  0  0  0  0  0  0  0  0  0
   53.1720   77.9810   27.1690 C   0  0  0  0  0  0  0  0  0  0  0  0
   52.6840   76.7100   27.2640 N   0  0  0  0  0  0  0  0  0  0  0  0
   52.5600   78.8330   26.5350 O   0  0  0  0  0  0  0  0  0  0  0  0
   55.3870   79.1990   27.3410 C   0  0  0  0  0  0  0  0  0  0  0  0
   55.1740   79.8390   26.1800 F   0  0  0  0  0  0  0  0  0  0  0  0
   56.5780   79.4660   28.0200 C   0  0  0  0  0  0  0  0  0  0  0  0
   59.1480   81.0000   30.9510 N   0  0  0  0  0  0  0  0  0  0  0  0
   58.8750   80.6070   32.3330 C   0  0  0  0  0  0  0  0  0  0  0  0
   60.1560   80.4980   33.1590 C   0  0  0  0  0  0  0  0  0  0  0  0
   57.8100   81.4550   33.0320 C   0  0  0  0  0  0  0  0  0  0  0  0
   60.2959   82.8952   32.4421 H   0  0  0  0  0  0  0  0  0  0  0  0
   61.5202   83.2593   31.1791 H   0  0  0  0  0  0  0  0  0  0  0  0
   59.9455   84.1235   31.1791 H   0  0  0  0  0  0  0  0  0  0  0  0
   59.2215   80.7191   27.7115 H   0  0  0  0  0  0  0  0  0  0  0  0
   58.4160   78.3350   30.4450 H   0  0  0  0  0  0  0  0  0  0  0  0
   56.1437   77.4079   30.6922 H   0  0  0  0  0  0  0  0  0  0  0  0
   54.0168   76.9448   29.4853 H   0  0  0  0  0  0  0  0  0  0  0  0
   51.8070   76.5040   26.8050 H   0  0  0  0  0  0  0  0  0  0  0  0
   53.1480   75.9750   27.7840 H   0  0  0  0  0  0  0  0  0  0  0  0
   57.2974   80.1802   27.5930 H   0  0  0  0  0  0  0  0  0  0  0  0
   58.4347   79.6014   32.2630 H   0  0  0  0  0  0  0  0  0  0  0  0
   59.9048   80.5194   34.2297 H   0  0  0  0  0  0  0  0  0  0  0  0
   60.6665   79.5532   32.9209 H   0  0  0  0  0  0  0  0  0  0  0  0
   60.8188   81.3430   32.9209 H   0  0  0  0  0  0  0  0  0  0  0  0
   57.9254   81.3631   34.1221 H   0  0  0  0  0  0  0  0  0  0  0  0
   57.9290   82.5083   32.7382 H   0  0  0  0  0  0  0  0  0  0  0  0
   56.8101   81.1031   32.7382 H   0  0  0  0  0  0  0  0  0  0  0  0
  1  2  1  0
  2  3  2  0
  3  4  1  0
  4  5  2  0
  5  6  1  0
  6  7  1  0
  7  8  1  0
  8  9  2  0
  9 10  1  0
 10 11  1  0
 11 12  1  0
 11 13  2  0
 10 14  2  0
 14 15  1  0
 14 16  1  0
  5 17  1  0
 17 18  1  0
 18 19  1  0
 18 20  1  0
 17  2  1  0
 16  7  2  0
  1 21  1  0
  1 22  1  0
  1 23  1  0
  4 24  1  0
  6 25  1  0
  8 26  1  0
  9 27  1  0
 12 28  1  0
 12 29  1  0
 16 30  1  0
 18 31  1  0
 19 32  1  0
 19 33  1  0
 19 34  1  0
 20 35  1  0
 20 36  1  0
 20 37  1  0
M  END
>  <meeko>  (1) 
{"is_sidechain": false}

>  <smiles>  (1) 
Cc1ncc(Nc2ccc(C(N)=O)c(F)c2)n1C(C)C

>  <vina_score>  (1) 
-7.516

>  <job_id>  (1) 
4de3d114de0fe0d7

$$$$
