
     RDKit          3D

 46 49  0  0  0  0  0  0  0  0999 V2000
   55.5600   85.0080   26.8950 C   0  0  0  0  0  0  0  0  0  0  0  0
   55.0490   83.8740   26.1330 N   0  0  0  0  0  0  0  0  0  0  0  0
   54.6860   82.7550   27.0430 C   0  0  0  0  0  0  0  0  0  0  0  0
   55.3130   81.7960   25.9930 C   0  0  0  0  0  0  0  0  0  0  0  0
   56.0730   80.5870   26.5220 C   0  0  1  0  0  0  0  0  0  0  0  0
   56.8530   81.0360   27.6630 N   0  0  0  0  0  0  0  0  0  0  0  0
   57.9990   80.3830   28.0620 C   0  0  0  0  0  0  0  0  0  0  0  0
   58.4310   79.3800   27.5080 O   0  0  0  0  0  0  0  0  0  0  0  0
   58.7010   80.9410   29.2500 C   0  0  0  0  0  0  0  0  0  0  0  0
   59.8490   81.7320   29.1310 C   0  0  0  0  0  0  0  0  0  0  0  0
   60.4750   82.2290   30.2780 C   0  0  0  0  0  0  0  0  0  0  0  0
   59.9640   81.9340   31.5540 C   0  0  0  0  0  0  0  0  0  0  0  0
   60.5490   82.4050   32.7340 C   0  0  0  0  0  0  0  0  0  0  0  0
   60.0890   82.1370   33.9780 N   0  0  0  0  0  0  0  0  0  0  0  0
   58.9910   81.3580   34.0600 C   0  0  0  0  0  0  0  0  0  0  0  0
   58.3310   80.8350   32.9600 C   0  0  0  0  0  0  0  0  0  0  0  0
   58.8190   81.1250   31.6800 C   0  0  0  0  0  0  0  0  0  0  0  0
   58.1980   80.6290   30.5210 C   0  0  0  0  0  0  0  0  0  0  0  0
   55.1180   79.4820   26.9410 C   0  0  0  0  0  0  0  0  0  0  0  0
   53.9870   79.2130   26.1550 C   0  0  0  0  0  0  0  0  0  0  0  0
   53.0970   78.1940   26.5070 C   0  0  0  0  0  0  0  0  0  0  0  0
   53.3260   77.4210   27.6470 C   0  0  0  0  0  0  0  0  0  0  0  0
   52.1860   76.1770   28.0200 Cl  0  0  0  0  0  0  0  0  0  0  0  0
   54.4520   77.6690   28.4360 C   0  0  0  0  0  0  0  0  0  0  0  0
   54.8100   76.7510   29.8560 Cl  0  0  0  0  0  0  0  0  0  0  0  0
   55.3420   78.6910   28.0830 C   0  0  0  0  0  0  0  0  0  0  0  0
   56.1640   83.0410   25.6180 C   0  0  0  0  0  0  0  0  0  0  0  0
   55.4659   84.7991   27.9709 H   0  0  0  0  0  0  0  0  0  0  0  0
   56.6186   85.1710   26.6444 H   0  0  0  0  0  0  0  0  0  0  0  0
   54.9809   85.9090   26.6444 H   0  0  0  0  0  0  0  0  0  0  0  0
   55.1984   82.7693   28.0162 H   0  0  0  0  0  0  0  0  0  0  0  0
   53.6596   82.6183   27.4142 H   0  0  0  0  0  0  0  0  0  0  0  0
   54.7181   81.2186   25.2701 H   0  0  0  0  0  0  0  0  0  0  0  0
   56.7232   80.1737   25.7368 H   0  0  0  0  0  0  0  0  0  0  0  0
   56.4780   81.7810   28.2330 H   0  0  0  0  0  0  0  0  0  0  0  0
   60.2584   81.9625   28.1364 H   0  0  0  0  0  0  0  0  0  0  0  0
   61.3740   82.8555   30.1814 H   0  0  0  0  0  0  0  0  0  0  0  0
   61.4449   83.0369   32.6445 H   0  0  0  0  0  0  0  0  0  0  0  0
   58.5961   81.1241   35.0597 H   0  0  0  0  0  0  0  0  0  0  0  0
   57.4398   80.2034   33.0897 H   0  0  0  0  0  0  0  0  0  0  0  0
   57.3078   79.9892   30.6119 H   0  0  0  0  0  0  0  0  0  0  0  0
   53.7985   79.8110   25.2512 H   0  0  0  0  0  0  0  0  0  0  0  0
   52.2121   78.0003   25.8829 H   0  0  0  0  0  0  0  0  0  0  0  0
   56.2284   78.8780   28.7070 H   0  0  0  0  0  0  0  0  0  0  0  0
   57.1063   83.1385   26.1772 H   0  0  0  0  0  0  0  0  0  0  0  0
   56.5722   83.1805   24.6061 H   0  0  0  0  0  0  0  0  0  0  0  0
  1  2  1  0
  2  3  1  0
  3  4  1  0
  4  5  1  0
  5  6  1  0
  6  7  1  0
  7  8  2  0
  7  9  1  0
  9 10  1  0
 10 11  2  0
 11 12  1  0
 12 13  2  0
 13 14  1  0
 14 15  2  0
 15 16  1  0
 16 17  2  0
 17 18  1  0
  5 19  1  0
 19 20  1  0
 20 21  2  0
 21 22  1  0
 22 23  1  0
 22 24  2  0
 24 25  1  0
 24 26  1  0
  4 27  1  0
 27  2  1  0
 18  9  2  0
 26 19  2  0
 17 12  1  0
  1 28  1  0
  1 29  1  0
  1 30  1  0
  3 31  1  0
  3 32  1  0
  4 33  1  0
  5 34  1  6
  6 35  1  0
 10 36  1  0
 11 37  1  0
 13 38  1  0
 15 39  1  0
 16 40  1  0
 18 41  1  0
 20 42  1  0
 21 43  1  0
 26 44  1  0
 27 45  1  0
 27 46  1  0
M  END
>  <meeko>  (1) 
{"is_sidechain": false}

>  <smiles>  (1) 
CN1CC([C@@H](NC(=O)c2ccc3cnccc3c2)c2ccc(Cl)c(Cl)c2)C1

>  <vina_score>  (1) 
-8.751

>  <job_id>  (1) 
4dfef2594292e6ae

$$$$
