
     RDKit          3D

 39 40  0  0  0  0  0  0  0  0999 V2000
   51.8090   75.3570   26.1450 C   0  0  0  0  0  0  0  0  0  0  0  0
   52.9420   76.1070   26.6260 N   0  0  0  0  0  0  0  0  0  0  0  0
   53.2920   76.0620   27.9610 C   0  0  0  0  0  0  0  0  0  0  0  0
   52.7260   75.3560   28.7870 O   0  0  0  0  0  0  0  0  0  0  0  0
   54.3970   76.9650   28.3870 C   0  0  0  0  0  0  0  0  0  0  0  0
   55.1860   76.6910   29.5090 C   0  0  0  0  0  0  0  0  0  0  0  0
   56.2080   77.5730   29.8740 C   0  0  0  0  0  0  0  0  0  0  0  0
   56.4620   78.7440   29.1350 C   0  0  0  0  0  0  0  0  0  0  0  0
   57.5550   79.6310   29.5650 C   0  0  0  0  0  0  0  0  0  0  0  0
   58.3670   80.2750   28.6160 C   0  0  0  0  0  0  0  0  0  0  0  0
   59.4000   81.1260   29.0180 C   0  0  0  0  0  0  0  0  0  0  0  0
   59.6210   81.3570   30.3770 C   0  0  0  0  0  0  0  0  0  0  0  0
   60.7420   82.2380   30.7810 C   0  0  0  0  0  0  0  0  0  0  0  0
   61.8820   81.7920   30.6720 O   0  0  0  0  0  0  0  0  0  0  0  0
   60.4610   83.5110   31.2770 N   0  0  0  0  0  0  0  0  0  0  0  0
   61.5610   84.2910   31.8180 C   0  0  0  0  0  0  0  0  0  0  0  0
   59.2230   84.2380   31.0330 C   0  0  0  0  0  0  0  0  0  0  0  0
   58.8380   80.7060   31.3360 C   0  0  0  0  0  0  0  0  0  0  0  0
   57.8050   79.8570   30.9290 C   0  0  0  0  0  0  0  0  0  0  0  0
   55.6450   79.0110   28.0200 C   0  0  0  0  0  0  0  0  0  0  0  0
   55.8500   80.4370   27.0600 Cl  0  0  0  0  0  0  0  0  0  0  0  0
   54.6200   78.1330   27.6520 C   0  0  0  0  0  0  0  0  0  0  0  0
   51.2322   74.9752   27.0003 H   0  0  0  0  0  0  0  0  0  0  0  0
   51.1693   76.0107   25.5338 H   0  0  0  0  0  0  0  0  0  0  0  0
   52.1608   74.5128   25.5338 H   0  0  0  0  0  0  0  0  0  0  0  0
   53.2590   76.8870   26.0660 H   0  0  0  0  0  0  0  0  0  0  0  0
   55.0029   75.7835   30.1031 H   0  0  0  0  0  0  0  0  0  0  0  0
   56.8256   77.3474   30.7559 H   0  0  0  0  0  0  0  0  0  0  0  0
   58.1873   80.1072   27.5438 H   0  0  0  0  0  0  0  0  0  0  0  0
   60.0376   81.6128   28.2653 H   0  0  0  0  0  0  0  0  0  0  0  0
   61.5236   84.2645   32.9170 H   0  0  0  0  0  0  0  0  0  0  0  0
   62.5156   83.8669   31.4733 H   0  0  0  0  0  0  0  0  0  0  0  0
   61.4766   85.3322   31.4733 H   0  0  0  0  0  0  0  0  0  0  0  0
   58.7615   84.5090   31.9940 H   0  0  0  0  0  0  0  0  0  0  0  0
   59.4410   85.1515   30.4603 H   0  0  0  0  0  0  0  0  0  0  0  0
   58.5314   83.6026   30.4603 H   0  0  0  0  0  0  0  0  0  0  0  0
   59.0346   80.8617   32.4070 H   0  0  0  0  0  0  0  0  0  0  0  0
   57.1803   79.3598   31.6856 H   0  0  0  0  0  0  0  0  0  0  0  0
   53.9876   78.3624   26.7817 H   0  0  0  0  0  0  0  0  0  0  0  0
  1  2  1  0
  2  3  1  0
  3  4  2  0
  3  5  1  0
  5  6  1  0
  6  7  2  0
  7  8  1  0
  8  9  1  0
  9 10  1  0
 10 11  2  0
 11 12  1  0
 12 13  1  0
 13 14  2  0
 13 15  1  0
 15 16  1  0
 15 17  1  0
 12 18  2  0
 18 19  1  0
  8 20  2  0
 20 21  1  0
 20 22  1  0
 22  5  2  0
 19  9  2  0
  1 23  1  0
  1 24  1  0
  1 25  1  0
  2 26  1  0
  6 27  1  0
  7 28  1  0
 10 29  1  0
 11 30  1  0
 16 31  1  0
 16 32  1  0
 16 33  1  0
 17 34  1  0
 17 35  1  0
 17 36  1  0
 18 37  1  0
 19 38  1  0
 22 39  1  0
M  END
>  <meeko>  (1) 
{"is_sidechain": false}

>  <smiles>  (1) 
CNC(=O)c1ccc(-c2ccc(C(=O)N(C)C)cc2)c(Cl)c1

>  <vina_score>  (1) 
-7.182

>  <job_id>  (1) 
4e5856384bbad962

$$$$
