
     RDKit          3D

 60 63  0  0  0  0  0  0  0  0999 V2000
   63.3580   84.3870   31.7040 C   0  0  0  0  0  0  0  0  0  0  0  0
   62.7040   83.0990   31.2720 C   0  0  0  0  0  0  0  0  0  0  0  0
   63.3810   82.1070   31.0200 O   0  0  0  0  0  0  0  0  0  0  0  0
   61.3260   83.1980   31.2380 N   0  0  0  0  0  0  0  0  0  0  0  0
   60.3990   82.1960   30.8830 C   0  0  0  0  0  0  0  0  0  0  0  0
   59.7760   81.3480   31.8000 C   0  0  0  0  0  0  0  0  0  0  0  0
   58.8670   80.3760   31.3660 C   0  0  0  0  0  0  0  0  0  0  0  0
   58.5720   80.2280   30.0050 C   0  0  0  0  0  0  0  0  0  0  0  0
   57.5670   79.1990   29.5390 C   0  0  0  0  0  0  0  0  0  0  0  0
   57.0120   79.6210   28.2740 N   0  0  0  0  0  0  0  0  0  0  0  0
   55.8030   79.2150   27.7510 C   0  0  0  0  0  0  0  0  0  0  0  0
   55.2500   79.9480   26.8220 N   0  0  0  0  0  0  0  0  0  0  0  0
   54.0380   79.5730   26.2650 C   0  0  0  0  0  0  0  0  0  0  0  0
   53.5090   80.3850   25.2710 N   0  0  0  0  0  0  0  0  0  0  0  0
   53.3160   79.8560   23.9170 C   0  0  0  0  0  0  0  0  0  0  0  0
   52.1970   80.6070   23.1950 C   0  0  0  0  0  0  0  0  0  0  0  0
   52.4380   82.1100   23.1970 C   0  0  0  0  0  0  0  0  0  0  0  0
   52.6290   82.6150   24.6240 C   0  0  2  0  0  0  0  0  0  0  0  0
   52.9350   84.0080   24.5700 O   0  0  0  0  0  0  0  0  0  0  0  0
   53.7470   81.8340   25.3310 C   0  0  0  0  0  0  0  0  0  0  0  0
   53.3880   78.4950   26.6340 N   0  0  0  0  0  0  0  0  0  0  0  0
   53.9290   77.7160   27.5990 C   0  0  0  0  0  0  0  0  0  0  0  0
   53.5310   76.5450   28.2170 C   0  0  0  0  0  0  0  0  0  0  0  0
   52.2950   75.7320   27.9840 C   0  0  0  0  0  0  0  0  0  0  0  0
   51.0290   76.4820   28.4030 C   0  0  0  0  0  0  0  0  0  0  0  0
   52.1850   75.2600   26.5320 C   0  0  0  0  0  0  0  0  0  0  0  0
   54.5740   76.2770   29.1400 C   0  0  0  0  0  0  0  0  0  0  0  0
   55.5470   77.1920   29.1180 N   0  0  0  0  0  0  0  0  0  0  0  0
   55.1280   78.0550   28.1630 N   0  0  0  0  0  0  0  0  0  0  0  0
   59.1890   81.0870   29.0870 C   0  0  0  0  0  0  0  0  0  0  0  0
   60.0980   82.0560   29.5230 C   0  0  0  0  0  0  0  0  0  0  0  0
   63.3825   84.4353   32.8027 H   0  0  0  0  0  0  0  0  0  0  0  0
   64.3851   84.4261   31.3123 H   0  0  0  0  0  0  0  0  0  0  0  0
   62.7835   85.2393   31.3123 H   0  0  0  0  0  0  0  0  0  0  0  0
   60.9280   84.0900   31.5080 H   0  0  0  0  0  0  0  0  0  0  0  0
   60.0011   81.4443   32.8724 H   0  0  0  0  0  0  0  0  0  0  0  0
   58.3788   79.7209   32.1025 H   0  0  0  0  0  0  0  0  0  0  0  0
   58.0655   78.2261   29.4166 H   0  0  0  0  0  0  0  0  0  0  0  0
   56.7628   79.1022   30.2832 H   0  0  0  0  0  0  0  0  0  0  0  0
   57.2690   80.5580   27.9840 H   0  0  0  0  0  0  0  0  0  0  0  0
   54.2512   79.9691   23.3489 H   0  0  0  0  0  0  0  0  0  0  0  0
   53.0382   78.7942   23.9896 H   0  0  0  0  0  0  0  0  0  0  0  0
   52.1450   80.2553   22.1540 H   0  0  0  0  0  0  0  0  0  0  0  0
   51.2532   80.4095   23.7243 H   0  0  0  0  0  0  0  0  0  0  0  0
   53.3407   82.3333   22.6094 H   0  0  0  0  0  0  0  0  0  0  0  0
   51.5654   82.6124   22.7540 H   0  0  0  0  0  0  0  0  0  0  0  0
   51.7066   82.4608   25.2031 H   0  0  0  0  0  0  0  0  0  0  0  0
   53.5440   84.1410   23.8220 H   0  0  0  0  0  0  0  0  0  0  0  0
   54.7060   82.0598   24.8417 H   0  0  0  0  0  0  0  0  0  0  0  0
   53.7671   82.1382   26.3879 H   0  0  0  0  0  0  0  0  0  0  0  0
   52.3860   74.8408   28.6224 H   0  0  0  0  0  0  0  0  0  0  0  0
   50.9700   76.5170   29.5009 H   0  0  0  0  0  0  0  0  0  0  0  0
   51.0612   77.5069   28.0047 H   0  0  0  0  0  0  0  0  0  0  0  0
   50.1456   75.9614   28.0047 H   0  0  0  0  0  0  0  0  0  0  0  0
   51.9354   74.1889   26.5126 H   0  0  0  0  0  0  0  0  0  0  0  0
   51.3956   75.8298   26.0200 H   0  0  0  0  0  0  0  0  0  0  0  0
   53.1450   75.4221   26.0200 H   0  0  0  0  0  0  0  0  0  0  0  0
   54.5810   75.4027   29.8075 H   0  0  0  0  0  0  0  0  0  0  0  0
   58.9569   80.9988   28.0154 H   0  0  0  0  0  0  0  0  0  0  0  0
   60.5824   82.7162   28.7885 H   0  0  0  0  0  0  0  0  0  0  0  0
  1  2  1  0
  2  3  2  0
  2  4  1  0
  4  5  1  0
  5  6  1  0
  6  7  2  0
  7  8  1  0
  8  9  1  0
  9 10  1  0
 10 11  1  0
 11 12  2  0
 12 13  1  0
 13 14  1  0
 14 15  1  0
 15 16  1  0
 16 17  1  0
 17 18  1  0
 18 19  1  0
 18 20  1  0
 13 21  2  0
 21 22  1  0
 22 23  2  0
 23 24  1  0
 24 25  1  0
 24 26  1  0
 23 27  1  0
 27 28  2  0
 28 29  1  0
  8 30  2  0
 30 31  1  0
 31  5  2  0
 29 11  1  0
 20 14  1  0
 29 22  1  0
  1 32  1  0
  1 33  1  0
  1 34  1  0
  4 35  1  0
  6 36  1  0
  7 37  1  0
  9 38  1  0
  9 39  1  0
 10 40  1  0
 15 41  1  0
 15 42  1  0
 16 43  1  0
 16 44  1  0
 17 45  1  0
 17 46  1  0
 18 47  1  1
 19 48  1  0
 20 49  1  0
 20 50  1  0
 24 51  1  0
 25 52  1  0
 25 53  1  0
 25 54  1  0
 26 55  1  0
 26 56  1  0
 26 57  1  0
 27 58  1  0
 30 59  1  0
 31 60  1  0
M  END
>  <meeko>  (1) 
{"is_sidechain": false}

>  <smiles>  (1) 
CC(=O)Nc1ccc(CNc2nc(N3CCC[C@H](O)C3)nc3c(C(C)C)cnn23)cc1

>  <vina_score>  (1) 
-9.560

>  <job_id>  (1) 
4fc843c4e01058ca

$$$$
