
     RDKit          3D

 59 62  0  0  0  0  0  0  0  0999 V2000
   57.0410   87.7220   26.0540 C   0  0  0  0  0  0  0  0  0  0  0  0
   56.4720   86.8740   27.0430 O   0  0  0  0  0  0  0  0  0  0  0  0
   55.4060   86.0860   26.5240 C   0  0  0  0  0  0  0  0  0  0  0  0
   55.9360   84.8020   26.1280 N   0  0  0  0  0  0  0  0  0  0  0  0
   55.1050   83.6760   26.1510 C   0  0  0  0  0  0  0  0  0  0  0  0
   53.7210   83.7390   25.9530 C   0  0  0  0  0  0  0  0  0  0  0  0
   52.8970   82.6070   26.0530 C   0  0  0  0  0  0  0  0  0  0  0  0
   53.5000   81.3950   26.3930 C   0  0  0  0  0  0  0  0  0  0  0  0
   52.9490   80.1430   26.5740 N   0  0  0  0  0  0  0  0  0  0  0  0
   53.9130   79.2360   26.9400 C   0  0  0  0  0  0  0  0  0  0  0  0
   53.6360   77.9610   27.1950 O   0  0  0  0  0  0  0  0  0  0  0  0
   55.1090   79.9210   26.9640 C   0  0  0  0  0  0  0  0  0  0  0  0
   56.3360   79.3440   27.3120 N   0  0  0  0  0  0  0  0  0  0  0  0
   56.2880   78.7600   28.4110 N   0  0  0  0  0  0  0  0  0  0  0  0
   57.5110   78.2660   28.6920 N   0  0  0  0  0  0  0  0  0  0  0  0
   58.5860   79.1400   28.7540 N   0  0  0  0  0  0  0  0  0  0  0  0
   58.4570   80.2350   29.6470 C   0  0  0  0  0  0  0  0  0  0  0  0
   58.3260   79.9600   31.0170 C   0  0  0  0  0  0  0  0  0  0  0  0
   58.2700   80.9920   31.9600 C   0  0  0  0  0  0  0  0  0  0  0  0
   58.3910   82.3250   31.5610 C   0  0  0  0  0  0  0  0  0  0  0  0
   58.3040   83.3680   32.5030 N   0  0  0  0  0  0  0  0  0  0  0  0
   59.3440   83.9440   32.9180 N   0  0  0  0  0  0  0  0  0  0  0  0
   60.6140   83.5550   32.4540 C   0  0  0  0  0  0  0  0  0  0  0  0
   61.2890   82.4840   33.0560 C   0  0  0  0  0  0  0  0  0  0  0  0
   62.5660   82.1160   32.6260 C   0  0  0  0  0  0  0  0  0  0  0  0
   63.1810   82.8420   31.6030 C   0  0  0  0  0  0  0  0  0  0  0  0
   64.8000   82.3680   31.0540 S   0  0  0  0  0  0  0  0  0  0  0  0
   65.6770   82.4530   32.4900 N   0  0  0  0  0  0  0  0  0  0  0  0
   65.3270   83.4180   30.2140 O   0  0  0  0  0  0  0  0  0  0  0  0
   64.7570   80.9860   30.6410 O   0  0  0  0  0  0  0  0  0  0  0  0
   62.5310   83.9220   31.0020 C   0  0  0  0  0  0  0  0  0  0  0  0
   61.2540   84.2820   31.4420 C   0  0  0  0  0  0  0  0  0  0  0  0
   58.5260   82.6080   30.1990 C   0  0  0  0  0  0  0  0  0  0  0  0
   58.5830   81.5750   29.2560 C   0  0  0  0  0  0  0  0  0  0  0  0
   54.8690   81.2840   26.6370 C   0  0  0  0  0  0  0  0  0  0  0  0
   55.6650   82.4450   26.5350 C   0  0  0  0  0  0  0  0  0  0  0  0
   57.5898   88.5398   26.5439 H   0  0  0  0  0  0  0  0  0  0  0  0
   57.7326   87.1407   25.4264 H   0  0  0  0  0  0  0  0  0  0  0  0
   56.2409   88.1416   25.4264 H   0  0  0  0  0  0  0  0  0  0  0  0
   54.6364   85.9472   27.2976 H   0  0  0  0  0  0  0  0  0  0  0  0
   54.9519   86.5897   25.6579 H   0  0  0  0  0  0  0  0  0  0  0  0
   56.4270   84.8930   25.2420 H   0  0  0  0  0  0  0  0  0  0  0  0
   53.2630   84.7093   25.7106 H   0  0  0  0  0  0  0  0  0  0  0  0
   51.8143   82.6728   25.8699 H   0  0  0  0  0  0  0  0  0  0  0  0
   51.9660   79.9440   26.4660 H   0  0  0  0  0  0  0  0  0  0  0  0
   53.1270   77.5750   26.4620 H   0  0  0  0  0  0  0  0  0  0  0  0
   57.6960   77.3400   28.3120 H   0  0  0  0  0  0  0  0  0  0  0  0
   59.4580   78.6340   28.9120 H   0  0  0  0  0  0  0  0  0  0  0  0
   58.2663   78.9150   31.3552 H   0  0  0  0  0  0  0  0  0  0  0  0
   58.1296   80.7516   33.0242 H   0  0  0  0  0  0  0  0  0  0  0  0
   60.8085   81.9282   33.8747 H   0  0  0  0  0  0  0  0  0  0  0  0
   63.0828   81.2623   33.0887 H   0  0  0  0  0  0  0  0  0  0  0  0
   65.0910   82.4800   33.3220 H   0  0  0  0  0  0  0  0  0  0  0  0
   66.3100   83.2540   32.4410 H   0  0  0  0  0  0  0  0  0  0  0  0
   63.0185   84.4832   30.1913 H   0  0  0  0  0  0  0  0  0  0  0  0
   60.7460   85.1458   30.9885 H   0  0  0  0  0  0  0  0  0  0  0  0
   58.5882   83.6540   29.8643 H   0  0  0  0  0  0  0  0  0  0  0  0
   58.7287   81.8184   28.1932 H   0  0  0  0  0  0  0  0  0  0  0  0
   56.7402   82.3858   26.7594 H   0  0  0  0  0  0  0  0  0  0  0  0
  1  2  1  0
  2  3  1  0
  3  4  1  0
  4  5  1  0
  5  6  2  0
  6  7  1  0
  7  8  2  0
  8  9  1  0
  9 10  1  0
 10 11  1  0
 10 12  2  0
 12 13  1  0
 13 14  2  3
 14 15  1  0
 15 16  1  0
 16 17  1  0
 17 18  1  0
 18 19  2  0
 19 20  1  0
 20 21  1  0
 21 22  2  3
 22 23  1  0
 23 24  1  0
 24 25  2  0
 25 26  1  0
 26 27  1  0
 27 28  1  0
 27 29  2  0
 27 30  2  0
 26 31  2  0
 31 32  1  0
 20 33  2  0
 33 34  1  0
 12 35  1  0
 35 36  2  0
 36  5  1  0
 35  8  1  0
 34 17  2  0
 32 23  2  0
  1 37  1  0
  1 38  1  0
  1 39  1  0
  3 40  1  0
  3 41  1  0
  4 42  1  0
  6 43  1  0
  7 44  1  0
  9 45  1  0
 11 46  1  0
 15 47  1  0
 16 48  1  0
 18 49  1  0
 19 50  1  0
 24 51  1  0
 25 52  1  0
 28 53  1  0
 28 54  1  0
 31 55  1  0
 32 56  1  0
 33 57  1  0
 34 58  1  0
 36 59  1  0
M  END
>  <meeko>  (1) 
{"is_sidechain": false}

>  <smiles>  (1) 
COCNc1ccc2[nH]c(O)c(N=NNNc3ccc(N=Nc4ccc(S(N)(=O)=O)cc4)cc3)c2c1

>  <vina_score>  (1) 
-8.258

>  <job_id>  (1) 
4fd4cabbb5705e19

$$$$
