
     RDKit          3D

 46 48  0  0  0  0  0  0  0  0999 V2000
   52.9010   82.5590   24.5700 C   0  0  0  0  0  0  0  0  0  0  0  0
   52.6000   81.3400   23.6980 C   0  0  0  0  0  0  0  0  0  0  0  0
   52.5260   81.7550   22.2270 C   0  0  0  0  0  0  0  0  0  0  0  0
   53.6450   80.3370   23.8300 N   0  0  0  0  0  0  0  0  0  0  0  0
   53.7940   79.7310   25.0640 C   0  0  0  0  0  0  0  0  0  0  0  0
   52.8270   78.8810   25.4090 N   0  0  0  0  0  0  0  0  0  0  0  0
   52.9490   78.2870   26.6100 C   0  0  0  0  0  0  0  0  0  0  0  0
   54.0010   78.4870   27.4870 C   0  0  0  0  0  0  0  0  0  0  0  0
   54.9520   79.3900   27.0440 C   0  0  0  0  0  0  0  0  0  0  0  0
   54.8530   80.0000   25.8350 N   0  0  0  0  0  0  0  0  0  0  0  0
   56.1850   79.7700   27.8430 C   0  0  0  0  0  0  0  0  0  0  0  0
   57.0020   78.6730   28.3730 N   0  0  0  0  0  0  0  0  0  0  0  0
   58.4150   79.0400   28.5290 C   0  0  0  0  0  0  0  0  0  0  0  0
   58.6390   80.1310   29.5580 C   0  0  0  0  0  0  0  0  0  0  0  0
   59.0300   81.4190   29.1640 C   0  0  0  0  0  0  0  0  0  0  0  0
   59.2170   82.4270   30.1110 C   0  0  0  0  0  0  0  0  0  0  0  0
   59.0060   82.1620   31.4620 C   0  0  0  0  0  0  0  0  0  0  0  0
   58.6080   80.8880   31.8680 C   0  0  0  0  0  0  0  0  0  0  0  0
   58.4210   79.8790   30.9210 C   0  0  0  0  0  0  0  0  0  0  0  0
   56.4240   77.9550   29.5060 C   0  0  0  0  0  0  0  0  0  0  0  0
   55.2320   77.0340   29.2290 C   0  0  0  0  0  0  0  0  0  0  0  0
   53.9800   77.7900   28.8140 C   0  0  0  0  0  0  0  0  0  0  0  0
   52.8314   82.2771   25.6310 H   0  0  0  0  0  0  0  0  0  0  0  0
   53.9161   82.9232   24.3532 H   0  0  0  0  0  0  0  0  0  0  0  0
   52.1721   83.3539   24.3532 H   0  0  0  0  0  0  0  0  0  0  0  0
   51.6393   80.9200   24.0306 H   0  0  0  0  0  0  0  0  0  0  0  0
   52.3333   82.8359   22.1602 H   0  0  0  0  0  0  0  0  0  0  0  0
   53.4800   81.5214   21.7317 H   0  0  0  0  0  0  0  0  0  0  0  0
   51.7116   81.2060   21.7317 H   0  0  0  0  0  0  0  0  0  0  0  0
   54.5730   80.6110   23.5270 H   0  0  0  0  0  0  0  0  0  0  0  0
   52.1544   77.5913   26.9175 H   0  0  0  0  0  0  0  0  0  0  0  0
   56.8290   80.3772   27.1898 H   0  0  0  0  0  0  0  0  0  0  0  0
   55.7990   80.2921   28.7309 H   0  0  0  0  0  0  0  0  0  0  0  0
   58.9761   78.1462   28.8394 H   0  0  0  0  0  0  0  0  0  0  0  0
   58.7605   79.4290   27.5598 H   0  0  0  0  0  0  0  0  0  0  0  0
   59.1909   81.6369   28.0979 H   0  0  0  0  0  0  0  0  0  0  0  0
   59.5312   83.4312   29.7903 H   0  0  0  0  0  0  0  0  0  0  0  0
   59.1531   82.9566   32.2083 H   0  0  0  0  0  0  0  0  0  0  0  0
   58.4414   80.6782   32.9349 H   0  0  0  0  0  0  0  0  0  0  0  0
   58.1001   78.8784   31.2462 H   0  0  0  0  0  0  0  0  0  0  0  0
   57.2213   77.3379   29.9458 H   0  0  0  0  0  0  0  0  0  0  0  0
   56.0219   78.7428   30.1599 H   0  0  0  0  0  0  0  0  0  0  0  0
   55.5060   76.3397   28.4210 H   0  0  0  0  0  0  0  0  0  0  0  0
   55.0011   76.5046   30.1652 H   0  0  0  0  0  0  0  0  0  0  0  0
   53.1504   77.0679   28.7939 H   0  0  0  0  0  0  0  0  0  0  0  0
   53.8822   78.5982   29.5538 H   0  0  0  0  0  0  0  0  0  0  0  0
  1  2  1  0
  2  3  1  0
  2  4  1  0
  4  5  1  0
  5  6  2  0
  6  7  1  0
  7  8  2  0
  8  9  1  0
  9 10  2  0
  9 11  1  0
 11 12  1  0
 12 13  1  0
 13 14  1  0
 14 15  2  0
 15 16  1  0
 16 17  2  0
 17 18  1  0
 18 19  2  0
 12 20  1  0
 20 21  1  0
 21 22  1  0
 10  5  1  0
 19 14  1  0
 22  8  1  0
  1 23  1  0
  1 24  1  0
  1 25  1  0
  2 26  1  0
  3 27  1  0
  3 28  1  0
  3 29  1  0
  4 30  1  0
  7 31  1  0
 11 32  1  0
 11 33  1  0
 13 34  1  0
 13 35  1  0
 15 36  1  0
 16 37  1  0
 17 38  1  0
 18 39  1  0
 19 40  1  0
 20 41  1  0
 20 42  1  0
 21 43  1  0
 21 44  1  0
 22 45  1  0
 22 46  1  0
M  END
>  <meeko>  (1) 
{"is_sidechain": false}

>  <smiles>  (1) 
CC(C)Nc1ncc2c(n1)CN(Cc1ccccc1)CCC2

>  <vina_score>  (1) 
-6.494

>  <job_id>  (1) 
4fd6290ed41013e6

$$$$
