
     RDKit          3D

 43 45  0  0  0  0  0  0  0  0999 V2000
   52.2450   75.7350   27.4450 C   0  0  0  0  0  0  0  0  0  0  0  0
   52.5680   76.9700   28.0690 O   0  0  0  0  0  0  0  0  0  0  0  0
   53.8610   77.1660   28.4740 C   0  0  0  0  0  0  0  0  0  0  0  0
   54.6220   76.1990   29.1470 C   0  0  0  0  0  0  0  0  0  0  0  0
   55.9350   76.4680   29.5360 C   0  0  0  0  0  0  0  0  0  0  0  0
   56.5030   77.7040   29.2580 C   0  0  0  0  0  0  0  0  0  0  0  0
   55.7560   78.6740   28.5910 C   0  0  0  0  0  0  0  0  0  0  0  0
   54.4270   78.4260   28.1900 C   0  0  0  0  0  0  0  0  0  0  0  0
   53.6850   79.5430   27.4650 C   0  0  0  0  0  0  0  0  0  0  0  0
   54.5590   80.7780   27.1990 C   0  0  0  0  0  0  0  0  0  0  0  0
   53.7480   81.8840   26.5300 C   0  0  0  0  0  0  0  0  0  0  0  0
   53.0530   81.4080   25.3360 N   0  0  0  0  0  0  0  0  0  0  0  0
   52.7220   82.3800   24.3830 C   0  0  0  0  0  0  0  0  0  0  0  0
   52.9350   83.5810   24.5360 O   0  0  0  0  0  0  0  0  0  0  0  0
   52.1150   81.9450   23.1020 C   0  0  0  0  0  0  0  0  0  0  0  0
   52.9350   81.7950   21.9790 C   0  0  0  0  0  0  0  0  0  0  0  0
   52.3860   81.3580   20.7740 C   0  0  0  0  0  0  0  0  0  0  0  0
   51.0250   81.0560   20.6950 C   0  0  0  0  0  0  0  0  0  0  0  0
   50.2110   81.1810   21.8230 C   0  0  0  0  0  0  0  0  0  0  0  0
   50.7550   81.6170   23.0310 C   0  0  0  0  0  0  0  0  0  0  0  0
   52.2220   80.2170   25.5290 C   0  0  0  0  0  0  0  0  0  0  0  0
   53.0060   79.0740   26.1690 C   0  0  0  0  0  0  0  0  0  0  0  0
   52.0464   74.9757   28.2157 H   0  0  0  0  0  0  0  0  0  0  0  0
   51.3503   75.8639   26.8181 H   0  0  0  0  0  0  0  0  0  0  0  0
   53.0882   75.4094   26.8181 H   0  0  0  0  0  0  0  0  0  0  0  0
   54.1789   75.2174   29.3708 H   0  0  0  0  0  0  0  0  0  0  0  0
   56.5203   75.7002   30.0632 H   0  0  0  0  0  0  0  0  0  0  0  0
   57.5382   77.9171   29.5628 H   0  0  0  0  0  0  0  0  0  0  0  0
   56.2119   79.6512   28.3735 H   0  0  0  0  0  0  0  0  0  0  0  0
   52.8917   79.8455   28.1644 H   0  0  0  0  0  0  0  0  0  0  0  0
   54.9567   81.1505   28.1545 H   0  0  0  0  0  0  0  0  0  0  0  0
   55.3811   80.4893   26.5276 H   0  0  0  0  0  0  0  0  0  0  0  0
   53.0042   82.2620   27.2468 H   0  0  0  0  0  0  0  0  0  0  0  0
   54.4448   82.6780   26.2234 H   0  0  0  0  0  0  0  0  0  0  0  0
   54.0094   82.0210   22.0461 H   0  0  0  0  0  0  0  0  0  0  0  0
   53.0253   81.2511   19.8853 H   0  0  0  0  0  0  0  0  0  0  0  0
   50.5926   80.7186   19.7415 H   0  0  0  0  0  0  0  0  0  0  0  0
   49.1407   80.9355   21.7587 H   0  0  0  0  0  0  0  0  0  0  0  0
   50.1188   81.7029   23.9242 H   0  0  0  0  0  0  0  0  0  0  0  0
   51.3749   80.4762   26.1811 H   0  0  0  0  0  0  0  0  0  0  0  0
   51.8735   79.8806   24.5414 H   0  0  0  0  0  0  0  0  0  0  0  0
   52.3172   78.2481   26.4002 H   0  0  0  0  0  0  0  0  0  0  0  0
   53.7808   78.7374   25.4645 H   0  0  0  0  0  0  0  0  0  0  0  0
  1  2  1  0
  2  3  1  0
  3  4  2  0
  4  5  1  0
  5  6  2  0
  6  7  1  0
  7  8  2  0
  8  9  1  0
  9 10  1  0
 10 11  1  0
 11 12  1  0
 12 13  1  0
 13 14  2  0
 13 15  1  0
 15 16  2  0
 16 17  1  0
 17 18  2  0
 18 19  1  0
 19 20  2  0
 12 21  1  0
 21 22  1  0
  8  3  1  0
 22  9  1  0
 20 15  1  0
  1 23  1  0
  1 24  1  0
  1 25  1  0
  4 26  1  0
  5 27  1  0
  6 28  1  0
  7 29  1  0
  9 30  1  0
 10 31  1  0
 10 32  1  0
 11 33  1  0
 11 34  1  0
 16 35  1  0
 17 36  1  0
 18 37  1  0
 19 38  1  0
 20 39  1  0
 21 40  1  0
 21 41  1  0
 22 42  1  0
 22 43  1  0
M  END
>  <meeko>  (1) 
{"is_sidechain": false}

>  <smiles>  (1) 
COc1ccccc1C1CCN(C(=O)c2ccccc2)CC1

>  <vina_score>  (1) 
-7.204

>  <job_id>  (1) 
50203a98072b2fb0

$$$$
