
     RDKit          3D

 44 45  0  0  0  0  0  0  0  0999 V2000
   52.7150   76.5790   27.3520 C   0  0  0  0  0  0  0  0  0  0  0  0
   53.8680   76.8140   28.2660 C   0  0  0  0  0  0  0  0  0  0  0  0
   54.4410   75.9220   29.1450 C   0  0  0  0  0  0  0  0  0  0  0  0
   55.5050   76.5830   29.7800 C   0  0  0  0  0  0  0  0  0  0  0  0
   55.6060   77.8660   29.2650 C   0  0  0  0  0  0  0  0  0  0  0  0
   56.6150   78.7320   29.6650 N   0  0  0  0  0  0  0  0  0  0  0  0
   57.7080   79.1970   28.9690 C   0  0  0  0  0  0  0  0  0  0  0  0
   58.0260   78.9900   27.8070 O   0  0  0  0  0  0  0  0  0  0  0  0
   58.6080   80.0790   29.7630 C   0  0  0  0  0  0  0  0  0  0  0  0
   58.5520   80.0030   31.1620 C   0  0  0  0  0  0  0  0  0  0  0  0
   59.3760   80.8160   31.9420 C   0  0  0  0  0  0  0  0  0  0  0  0
   60.2410   81.7200   31.3180 C   0  0  0  0  0  0  0  0  0  0  0  0
   61.3060   82.7330   32.3050 S   0  0  0  0  0  0  0  0  0  0  0  0
   62.6340   81.7320   32.5200 N   0  0  0  0  0  0  0  0  0  0  0  0
   60.7160   82.9020   33.6120 O   0  0  0  0  0  0  0  0  0  0  0  0
   61.7660   83.8480   31.5120 O   0  0  0  0  0  0  0  0  0  0  0  0
   60.2990   81.8090   29.9230 C   0  0  0  0  0  0  0  0  0  0  0  0
   59.4740   80.9920   29.1440 C   0  0  0  0  0  0  0  0  0  0  0  0
   54.5460   78.0280   28.3830 N   0  0  0  0  0  0  0  0  0  0  0  0
   54.0920   79.2450   27.7210 C   0  0  0  0  0  0  0  0  0  0  0  0
   54.8100   79.5520   26.3930 C   0  0  0  0  0  0  0  0  0  0  0  0
   53.8160   79.4630   25.2320 C   0  0  0  0  0  0  0  0  0  0  0  0
   55.4630   80.9370   26.4060 C   0  0  0  0  0  0  0  0  0  0  0  0
   51.8079   76.3941   27.9461 H   0  0  0  0  0  0  0  0  0  0  0  0
   52.5636   77.4647   26.7176 H   0  0  0  0  0  0  0  0  0  0  0  0
   52.9223   75.7046   26.7176 H   0  0  0  0  0  0  0  0  0  0  0  0
   54.1237   74.8830   29.3179 H   0  0  0  0  0  0  0  0  0  0  0  0
   56.1523   76.1530   30.5586 H   0  0  0  0  0  0  0  0  0  0  0  0
   56.5470   79.0120   30.6360 H   0  0  0  0  0  0  0  0  0  0  0  0
   57.8570   79.3010   31.6460 H   0  0  0  0  0  0  0  0  0  0  0  0
   59.3451   80.7460   33.0393 H   0  0  0  0  0  0  0  0  0  0  0  0
   62.6510   81.0140   31.7950 H   0  0  0  0  0  0  0  0  0  0  0  0
   62.6370   81.3570   33.4700 H   0  0  0  0  0  0  0  0  0  0  0  0
   60.9895   82.5174   29.4420 H   0  0  0  0  0  0  0  0  0  0  0  0
   59.5042   81.0653   28.0469 H   0  0  0  0  0  0  0  0  0  0  0  0
   53.0161   79.1440   27.5152 H   0  0  0  0  0  0  0  0  0  0  0  0
   54.3216   80.0776   28.4022 H   0  0  0  0  0  0  0  0  0  0  0  0
   55.6062   78.8041   26.2634 H   0  0  0  0  0  0  0  0  0  0  0  0
   52.7946   79.3715   25.6300 H   0  0  0  0  0  0  0  0  0  0  0  0
   53.8895   80.3713   24.6159 H   0  0  0  0  0  0  0  0  0  0  0  0
   54.0497   78.5822   24.6159 H   0  0  0  0  0  0  0  0  0  0  0  0
   55.6156   81.2607   27.4462 H   0  0  0  0  0  0  0  0  0  0  0  0
   56.4336   80.8896   25.8906 H   0  0  0  0  0  0  0  0  0  0  0  0
   54.8089   81.6556   25.8906 H   0  0  0  0  0  0  0  0  0  0  0  0
  1  2  1  0
  2  3  2  0
  3  4  1  0
  4  5  2  0
  5  6  1  0
  6  7  1  0
  7  8  2  0
  7  9  1  0
  9 10  1  0
 10 11  2  0
 11 12  1  0
 12 13  1  0
 13 14  1  0
 13 15  2  0
 13 16  2  0
 12 17  2  0
 17 18  1  0
  5 19  1  0
 19 20  1  0
 20 21  1  0
 21 22  1  0
 21 23  1  0
 19  2  1  0
 18  9  2  0
  1 24  1  0
  1 25  1  0
  1 26  1  0
  3 27  1  0
  4 28  1  0
  6 29  1  0
 10 30  1  0
 11 31  1  0
 14 32  1  0
 14 33  1  0
 17 34  1  0
 18 35  1  0
 20 36  1  0
 20 37  1  0
 21 38  1  0
 22 39  1  0
 22 40  1  0
 22 41  1  0
 23 42  1  0
 23 43  1  0
 23 44  1  0
M  END
>  <meeko>  (1) 
{"is_sidechain": false}

>  <smiles>  (1) 
Cc1ccc(NC(=O)c2ccc(S(N)(=O)=O)cc2)n1CC(C)C

>  <vina_score>  (1) 
-7.744

>  <job_id>  (1) 
5035921f7a87bd38

$$$$
