
     RDKit          3D

 54 57  0  0  0  0  0  0  0  0999 V2000
   52.5600   75.3720   27.1210 C   0  0  0  0  0  0  0  0  0  0  0  0
   52.5120   76.8850   27.2550 C   0  0  0  0  0  0  0  0  0  0  0  0
   53.6850   77.4130   27.9230 N   0  0  0  0  0  0  0  0  0  0  0  0
   54.5000   78.3260   27.3000 C   0  0  0  0  0  0  0  0  0  0  0  0
   54.2960   78.7190   26.1550 O   0  0  0  0  0  0  0  0  0  0  0  0
   55.5640   78.7720   28.0840 N   0  0  0  0  0  0  0  0  0  0  0  0
   56.4300   79.7700   27.4620 C   0  0  0  0  0  0  0  0  0  0  0  0
   57.2240   80.5720   28.4870 C   0  0  0  0  0  0  0  0  0  0  0  0
   57.9880   79.6450   29.4370 C   0  0  0  0  0  0  0  0  0  0  0  0
   58.7630   80.4840   30.4670 C   0  0  0  0  0  0  0  0  0  0  0  0
   58.5160   80.2370   31.7210 N   0  0  0  0  0  0  0  0  0  0  0  0
   59.1620   80.9940   32.6460 C   0  0  0  0  0  0  0  0  0  0  0  0
   59.0960   80.9790   34.0200 C   0  0  0  0  0  0  0  0  0  0  0  0
   59.9590   81.9980   34.4350 C   0  0  0  0  0  0  0  0  0  0  0  0
   60.5450   82.6230   33.4160 N   0  0  0  0  0  0  0  0  0  0  0  0
   60.0650   82.0010   32.2960 N   0  0  0  0  0  0  0  0  0  0  0  0
   60.3590   82.2770   30.9290 C   0  0  0  0  0  0  0  0  0  0  0  0
   61.2440   83.3240   30.6490 N   0  0  0  0  0  0  0  0  0  0  0  0
   62.6590   83.2530   30.6650 C   0  0  0  0  0  0  0  0  0  0  0  0
   63.3750   82.1000   31.0200 C   0  0  0  0  0  0  0  0  0  0  0  0
   64.7730   82.1060   31.0620 C   0  0  0  0  0  0  0  0  0  0  0  0
   65.4670   83.2710   30.7630 C   0  0  0  0  0  0  0  0  0  0  0  0
   66.8070   83.2550   30.8070 F   0  0  0  0  0  0  0  0  0  0  0  0
   64.7780   84.4320   30.4300 C   0  0  0  0  0  0  0  0  0  0  0  0
   65.6280   85.8860   30.0670 Cl  0  0  0  0  0  0  0  0  0  0  0  0
   63.3810   84.4250   30.3880 C   0  0  0  0  0  0  0  0  0  0  0  0
   59.7150   81.5620   29.9720 C   0  0  0  0  0  0  0  0  0  0  0  0
   59.9060   81.7340   28.4950 C   0  0  0  0  0  0  0  0  0  0  0  0
   56.9980   78.6800   30.1060 C   0  0  0  0  0  0  0  0  0  0  0  0
   56.2120   77.8940   29.0630 C   0  0  0  0  0  0  0  0  0  0  0  0
   52.5745   74.9156   28.1217 H   0  0  0  0  0  0  0  0  0  0  0  0
   51.6724   75.0242   26.5721 H   0  0  0  0  0  0  0  0  0  0  0  0
   53.4678   75.0811   26.5721 H   0  0  0  0  0  0  0  0  0  0  0  0
   52.4472   77.3278   26.2501 H   0  0  0  0  0  0  0  0  0  0  0  0
   51.6324   77.1424   27.8633 H   0  0  0  0  0  0  0  0  0  0  0  0
   53.6010   77.5490   28.9190 H   0  0  0  0  0  0  0  0  0  0  0  0
   57.1355   79.2568   26.7919 H   0  0  0  0  0  0  0  0  0  0  0  0
   55.7884   80.4732   26.9107 H   0  0  0  0  0  0  0  0  0  0  0  0
   57.9418   81.2182   27.9604 H   0  0  0  0  0  0  0  0  0  0  0  0
   56.5216   81.1779   29.0782 H   0  0  0  0  0  0  0  0  0  0  0  0
   58.7226   79.0449   28.8800 H   0  0  0  0  0  0  0  0  0  0  0  0
   58.4951   80.3107   34.6543 H   0  0  0  0  0  0  0  0  0  0  0  0
   60.1348   82.2555   35.4899 H   0  0  0  0  0  0  0  0  0  0  0  0
   60.9230   83.9590   29.9260 H   0  0  0  0  0  0  0  0  0  0  0  0
   62.8291   81.1780   31.2689 H   0  0  0  0  0  0  0  0  0  0  0  0
   65.3209   81.1909   31.3310 H   0  0  0  0  0  0  0  0  0  0  0  0
   62.8405   85.3490   30.1348 H   0  0  0  0  0  0  0  0  0  0  0  0
   60.7120   82.4598   28.3116 H   0  0  0  0  0  0  0  0  0  0  0  0
   60.1741   80.7668   28.0449 H   0  0  0  0  0  0  0  0  0  0  0  0
   58.9721   82.1016   28.0449 H   0  0  0  0  0  0  0  0  0  0  0  0
   57.5554   77.9765   30.7419 H   0  0  0  0  0  0  0  0  0  0  0  0
   56.2900   79.2669   30.7095 H   0  0  0  0  0  0  0  0  0  0  0  0
   56.9011   77.2198   28.5334 H   0  0  0  0  0  0  0  0  0  0  0  0
   55.4252   77.3303   29.5856 H   0  0  0  0  0  0  0  0  0  0  0  0
  1  2  1  0
  2  3  1  0
  3  4  1  0
  4  5  2  0
  4  6  1  0
  6  7  1  0
  7  8  1  0
  8  9  1  0
  9 10  1  0
 10 11  2  0
 11 12  1  0
 12 13  2  0
 13 14  1  0
 14 15  2  0
 15 16  1  0
 16 17  1  0
 17 18  1  0
 18 19  1  0
 19 20  1  0
 20 21  2  0
 21 22  1  0
 22 23  1  0
 22 24  2  0
 24 25  1  0
 24 26  1  0
 17 27  2  0
 27 28  1  0
  9 29  1  0
 29 30  1  0
 30  6  1  0
 27 10  1  0
 16 12  1  0
 26 19  2  0
  1 31  1  0
  1 32  1  0
  1 33  1  0
  2 34  1  0
  2 35  1  0
  3 36  1  0
  7 37  1  0
  7 38  1  0
  8 39  1  0
  8 40  1  0
  9 41  1  0
 13 42  1  0
 14 43  1  0
 18 44  1  0
 20 45  1  0
 21 46  1  0
 26 47  1  0
 28 48  1  0
 28 49  1  0
 28 50  1  0
 29 51  1  0
 29 52  1  0
 30 53  1  0
 30 54  1  0
M  END
>  <meeko>  (1) 
{"is_sidechain": false}

>  <smiles>  (1) 
CCNC(=O)N1CCC(c2nc3ccnn3c(Nc3ccc(F)c(Cl)c3)c2C)CC1

>  <vina_score>  (1) 
-7.758

>  <job_id>  (1) 
50450d69524bcf53

$$$$
