
     RDKit          3D

 43 44  0  0  0  0  0  0  0  0999 V2000
   53.6850   78.5270   24.2890 C   0  0  0  0  0  0  0  0  0  0  0  0
   53.4780   79.9280   24.8520 C   0  0  1  0  0  0  0  0  0  0  0  0
   52.0810   80.2330   24.8090 O   0  0  0  0  0  0  0  0  0  0  0  0
   54.0270   80.0970   26.2900 C   0  0  1  0  0  0  0  0  0  0  0  0
   53.5800   81.4290   26.8940 C   0  0  0  0  0  0  0  0  0  0  0  0
   53.5130   79.0730   27.1570 O   0  0  0  0  0  0  0  0  0  0  0  0
   54.4280   78.3090   27.8460 C   0  0  0  0  0  0  0  0  0  0  0  0
   55.6480   78.8190   28.1100 N   0  0  0  0  0  0  0  0  0  0  0  0
   56.5200   78.0380   28.7620 C   0  0  0  0  0  0  0  0  0  0  0  0
   57.7590   78.6170   29.0080 N   0  0  0  0  0  0  0  0  0  0  0  0
   58.1760   79.8060   29.6180 C   0  0  0  0  0  0  0  0  0  0  0  0
   58.1670   79.8760   31.0230 C   0  0  0  0  0  0  0  0  0  0  0  0
   58.5600   81.0330   31.7010 C   0  0  0  0  0  0  0  0  0  0  0  0
   58.9600   82.1510   30.9700 C   0  0  0  0  0  0  0  0  0  0  0  0
   59.4850   83.6200   31.8150 S   0  0  0  0  0  0  0  0  0  0  0  0
   60.5810   84.2020   31.0680 O   0  0  0  0  0  0  0  0  0  0  0  0
   58.3080   84.3970   32.1450 O   0  0  0  0  0  0  0  0  0  0  0  0
   60.2700   82.8960   33.6010 S   0  0  0  0  0  0  0  0  0  0  0  0
   58.9900   82.1070   29.5770 C   0  0  0  0  0  0  0  0  0  0  0  0
   58.5930   80.9410   28.9120 C   0  0  0  0  0  0  0  0  0  0  0  0
   56.2280   76.7880   29.1450 N   0  0  0  0  0  0  0  0  0  0  0  0
   54.9990   76.3160   28.8550 C   0  0  0  0  0  0  0  0  0  0  0  0
   54.0420   77.0430   28.1960 C   0  0  0  0  0  0  0  0  0  0  0  0
   52.7010   76.4950   27.8850 C   0  0  0  0  0  0  0  0  0  0  0  0
   52.4610   76.3840   26.5500 F   0  0  0  0  0  0  0  0  0  0  0  0
   52.5210   75.2360   28.3850 F   0  0  0  0  0  0  0  0  0  0  0  0
   51.6800   77.2310   28.4030 F   0  0  0  0  0  0  0  0  0  0  0  0
   53.7908   77.8109   25.1173 H   0  0  0  0  0  0  0  0  0  0  0  0
   52.8183   78.2482   23.6717 H   0  0  0  0  0  0  0  0  0  0  0  0
   54.5953   78.5107   23.6717 H   0  0  0  0  0  0  0  0  0  0  0  0
   54.0505   80.6309   24.2289 H   0  0  0  0  0  0  0  0  0  0  0  0
   51.7390   80.2040   25.7190 H   0  0  0  0  0  0  0  0  0  0  0  0
   55.1231   80.0434   26.2139 H   0  0  0  0  0  0  0  0  0  0  0  0
   53.6031   81.3600   27.9916 H   0  0  0  0  0  0  0  0  0  0  0  0
   54.2592   82.2283   26.5624 H   0  0  0  0  0  0  0  0  0  0  0  0
   52.5562   81.6568   26.5624 H   0  0  0  0  0  0  0  0  0  0  0  0
   58.4800   78.0280   28.6160 H   0  0  0  0  0  0  0  0  0  0  0  0
   57.8427   78.9987   31.6020 H   0  0  0  0  0  0  0  0  0  0  0  0
   58.5539   81.0615   32.8006 H   0  0  0  0  0  0  0  0  0  0  0  0
   59.1470   82.2710   33.9680 H   0  0  0  0  0  0  0  0  0  0  0  0
   59.3240   82.9841   29.0033 H   0  0  0  0  0  0  0  0  0  0  0  0
   58.6089   80.9159   27.8124 H   0  0  0  0  0  0  0  0  0  0  0  0
   54.7503   75.2902   29.1645 H   0  0  0  0  0  0  0  0  0  0  0  0
  1  2  1  0
  2  3  1  0
  2  4  1  0
  4  5  1  0
  4  6  1  0
  6  7  1  0
  7  8  2  0
  8  9  1  0
  9 10  1  0
 10 11  1  0
 11 12  1  0
 12 13  2  0
 13 14  1  0
 14 15  1  0
 15 16  2  0
 15 17  2  0
 15 18  1  0
 14 19  2  0
 19 20  1  0
  9 21  2  0
 21 22  1  0
 22 23  2  0
 23 24  1  0
 24 25  1  0
 24 26  1  0
 24 27  1  0
 23  7  1  0
 20 11  2  0
  1 28  1  0
  1 29  1  0
  1 30  1  0
  2 31  1  6
  3 32  1  0
  4 33  1  6
  5 34  1  0
  5 35  1  0
  5 36  1  0
 10 37  1  0
 12 38  1  0
 13 39  1  0
 18 40  1  0
 19 41  1  0
 20 42  1  0
 22 43  1  0
M  END
>  <meeko>  (1) 
{"is_sidechain": false}

>  <smiles>  (1) 
C[C@@H](O)[C@@H](C)Oc1nc(Nc2ccc(S(=O)(=O)S)cc2)ncc1C(F)(F)F

>  <vina_score>  (1) 
-7.986

>  <job_id>  (1) 
5082af6572ebed07

$$$$
