
     RDKit          3D

 35 36  0  0  0  0  0  0  0  0999 V2000
   52.5540   82.1650   21.9230 C   0  0  0  0  0  0  0  0  0  0  0  0
   52.6560   80.9820   22.8160 C   0  0  0  0  0  0  0  0  0  0  0  0
   52.1390   79.8040   22.5250 N   0  0  0  0  0  0  0  0  0  0  0  0
   52.5430   78.9670   23.5200 C   0  0  0  0  0  0  0  0  0  0  0  0
   53.3550   79.6180   24.4260 C   0  0  0  0  0  0  0  0  0  0  0  0
   54.0180   79.0380   25.4970 N   0  0  0  0  0  0  0  0  0  0  0  0
   53.4300   78.7950   26.7300 C   0  0  0  0  0  0  0  0  0  0  0  0
   52.2630   79.0350   27.0190 O   0  0  0  0  0  0  0  0  0  0  0  0
   54.3250   78.2370   27.7760 C   0  0  0  0  0  0  0  0  0  0  0  0
   53.9980   77.0280   28.3950 C   0  0  0  0  0  0  0  0  0  0  0  0
   52.9150   76.3270   28.0310 F   0  0  0  0  0  0  0  0  0  0  0  0
   54.8100   76.4870   29.3950 C   0  0  0  0  0  0  0  0  0  0  0  0
   55.9680   77.1530   29.7910 C   0  0  0  0  0  0  0  0  0  0  0  0
   56.3100   78.3580   29.1820 C   0  0  0  0  0  0  0  0  0  0  0  0
   55.4910   78.8880   28.1840 C   0  0  0  0  0  0  0  0  0  0  0  0
   55.8580   80.0510   27.6230 F   0  0  0  0  0  0  0  0  0  0  0  0
   53.2940   80.9510   24.0490 N   0  0  0  0  0  0  0  0  0  0  0  0
   53.5940   82.1070   24.8950 C   0  0  0  0  0  0  0  0  0  0  0  0
   55.0250   82.0740   25.4500 C   0  0  0  0  0  0  0  0  0  0  0  0
   52.5670   82.3400   26.0010 C   0  0  0  0  0  0  0  0  0  0  0  0
   52.4753   83.0780   22.5315 H   0  0  0  0  0  0  0  0  0  0  0  0
   53.4504   82.2236   21.2882 H   0  0  0  0  0  0  0  0  0  0  0  0
   51.6608   82.0693   21.2882 H   0  0  0  0  0  0  0  0  0  0  0  0
   52.2584   77.9069   23.5924 H   0  0  0  0  0  0  0  0  0  0  0  0
   55.0310   79.1280   25.4800 H   0  0  0  0  0  0  0  0  0  0  0  0
   54.5347   75.5340   29.8703 H   0  0  0  0  0  0  0  0  0  0  0  0
   56.6079   76.7299   30.5794 H   0  0  0  0  0  0  0  0  0  0  0  0
   57.2230   78.8904   29.4868 H   0  0  0  0  0  0  0  0  0  0  0  0
   53.5219   82.9764   24.2250 H   0  0  0  0  0  0  0  0  0  0  0  0
   54.9920   82.0748   26.5495 H   0  0  0  0  0  0  0  0  0  0  0  0
   55.5335   81.1639   25.0991 H   0  0  0  0  0  0  0  0  0  0  0  0
   55.5749   82.9597   25.0991 H   0  0  0  0  0  0  0  0  0  0  0  0
   53.0529   82.2298   26.9817 H   0  0  0  0  0  0  0  0  0  0  0  0
   52.1529   83.3549   25.9090 H   0  0  0  0  0  0  0  0  0  0  0  0
   51.7555   81.6031   25.9090 H   0  0  0  0  0  0  0  0  0  0  0  0
  1  2  1  0
  2  3  2  0
  3  4  1  0
  4  5  2  0
  5  6  1  0
  6  7  1  0
  7  8  2  0
  7  9  1  0
  9 10  2  0
 10 11  1  0
 10 12  1  0
 12 13  2  0
 13 14  1  0
 14 15  2  0
 15 16  1  0
  5 17  1  0
 17 18  1  0
 18 19  1  0
 18 20  1  0
 17  2  1  0
 15  9  1  0
  1 21  1  0
  1 22  1  0
  1 23  1  0
  4 24  1  0
  6 25  1  0
 12 26  1  0
 13 27  1  0
 14 28  1  0
 18 29  1  0
 19 30  1  0
 19 31  1  0
 19 32  1  0
 20 33  1  0
 20 34  1  0
 20 35  1  0
M  END
>  <meeko>  (1) 
{"is_sidechain": false}

>  <smiles>  (1) 
Cc1ncc(NC(=O)c2c(F)cccc2F)n1C(C)C

>  <vina_score>  (1) 
-7.103

>  <job_id>  (1) 
50981e61fad4f70f

$$$$
