
     RDKit          3D

 59 63  0  0  0  0  0  0  0  0999 V2000
   52.6120   75.5400   26.5330 C   0  0  0  0  0  0  0  0  0  0  0  0
   52.4310   76.9210   27.1530 C   0  0  1  0  0  0  0  0  0  0  0  0
   51.5170   76.8020   28.2320 O   0  0  0  0  0  0  0  0  0  0  0  0
   53.6880   77.5260   27.7060 C   0  0  0  0  0  0  0  0  0  0  0  0
   54.4000   77.1300   28.8340 C   0  0  0  0  0  0  0  0  0  0  0  0
   55.5170   77.9750   28.9890 C   0  0  0  0  0  0  0  0  0  0  0  0
   56.5670   78.1070   29.8850 C   0  0  0  0  0  0  0  0  0  0  0  0
   57.4800   79.0880   29.7060 N   0  0  0  0  0  0  0  0  0  0  0  0
   57.3570   79.9270   28.6570 C   0  0  0  0  0  0  0  0  0  0  0  0
   58.2740   80.9430   28.4500 N   0  0  0  0  0  0  0  0  0  0  0  0
   59.0310   81.7610   29.2640 C   0  0  0  0  0  0  0  0  0  0  0  0
   60.3820   81.5900   29.5150 C   0  0  0  0  0  0  0  0  0  0  0  0
   61.0560   82.4840   30.3610 C   0  0  0  0  0  0  0  0  0  0  0  0
   60.3960   83.5570   30.9620 C   0  0  0  0  0  0  0  0  0  0  0  0
   61.0410   84.4430   31.8060 N   0  0  0  0  0  0  0  0  0  0  0  0
   61.6880   83.9770   33.0450 C   0  0  0  0  0  0  0  0  0  0  0  0
   62.8920   84.8700   33.4270 C   0  0  0  0  0  0  0  0  0  0  0  0
   62.6040   86.3070   33.5620 N   0  0  0  0  0  0  0  0  0  0  0  0
   61.5250   86.7250   32.6470 C   0  0  0  0  0  0  0  0  0  0  0  0
   61.3200   85.8310   31.4030 C   0  0  0  0  0  0  0  0  0  0  0  0
   59.0390   83.6310   30.6440 C   0  0  0  0  0  0  0  0  0  0  0  0
   58.3560   82.7820   29.8290 N   0  0  0  0  0  0  0  0  0  0  0  0
   56.3740   79.8680   27.7440 N   0  0  0  0  0  0  0  0  0  0  0  0
   55.4860   78.8790   27.9480 C   0  0  0  0  0  0  0  0  0  0  0  0
   54.3840   78.5990   27.1510 N   0  0  0  0  0  0  0  0  0  0  0  0
   54.0810   79.4220   25.9910 C   0  0  0  0  0  0  0  0  0  0  0  0
   53.0330   80.5200   26.2380 C   0  0  0  0  0  0  0  0  0  0  0  0
   52.2110   80.6060   24.9520 C   0  0  0  0  0  0  0  0  0  0  0  0
   53.0460   79.8940   23.8950 C   0  0  0  0  0  0  0  0  0  0  0  0
   53.6850   78.7500   24.6720 C   0  0  0  0  0  0  0  0  0  0  0  0
   52.7103   74.7897   27.3313 H   0  0  0  0  0  0  0  0  0  0  0  0
   51.7376   75.3002   25.9102 H   0  0  0  0  0  0  0  0  0  0  0  0
   53.5187   75.5337   25.9102 H   0  0  0  0  0  0  0  0  0  0  0  0
   52.0810   77.5784   26.3435 H   0  0  0  0  0  0  0  0  0  0  0  0
   51.7560   77.4880   28.8800 H   0  0  0  0  0  0  0  0  0  0  0  0
   54.1342   76.2934   29.4969 H   0  0  0  0  0  0  0  0  0  0  0  0
   56.6567   77.4171   30.7371 H   0  0  0  0  0  0  0  0  0  0  0  0
   58.4250   81.1230   27.4710 H   0  0  0  0  0  0  0  0  0  0  0  0
   60.9265   80.7540   29.0516 H   0  0  0  0  0  0  0  0  0  0  0  0
   62.1286   82.3358   30.5549 H   0  0  0  0  0  0  0  0  0  0  0  0
   60.9525   83.9999   33.8626 H   0  0  0  0  0  0  0  0  0  0  0  0
   62.0565   82.9541   32.8780 H   0  0  0  0  0  0  0  0  0  0  0  0
   63.2858   84.5124   34.3898 H   0  0  0  0  0  0  0  0  0  0  0  0
   63.6049   84.7843   32.5936 H   0  0  0  0  0  0  0  0  0  0  0  0
   62.3080   86.5070   34.5150 H   0  0  0  0  0  0  0  0  0  0  0  0
   60.5836   86.7342   33.2159 H   0  0  0  0  0  0  0  0  0  0  0  0
   61.8222   87.7118   32.2625 H   0  0  0  0  0  0  0  0  0  0  0  0
   60.4721   86.2152   30.8169 H   0  0  0  0  0  0  0  0  0  0  0  0
   62.2382   85.8479   30.7975 H   0  0  0  0  0  0  0  0  0  0  0  0
   58.4667   84.4547   31.0956 H   0  0  0  0  0  0  0  0  0  0  0  0
   55.0956   79.8249   25.8557 H   0  0  0  0  0  0  0  0  0  0  0  0
   52.3884   80.2505   27.0876 H   0  0  0  0  0  0  0  0  0  0  0  0
   53.5048   81.4831   26.4828 H   0  0  0  0  0  0  0  0  0  0  0  0
   51.2409   80.1034   25.0801 H   0  0  0  0  0  0  0  0  0  0  0  0
   51.9944   81.6474   24.6717 H   0  0  0  0  0  0  0  0  0  0  0  0
   52.4114   79.5127   23.0814 H   0  0  0  0  0  0  0  0  0  0  0  0
   53.7825   80.5519   23.4105 H   0  0  0  0  0  0  0  0  0  0  0  0
   52.9661   77.9349   24.8418 H   0  0  0  0  0  0  0  0  0  0  0  0
   54.5318   78.2838   24.1470 H   0  0  0  0  0  0  0  0  0  0  0  0
  1  2  1  0
  2  3  1  0
  2  4  1  0
  4  5  2  0
  5  6  1  0
  6  7  2  0
  7  8  1  0
  8  9  2  0
  9 10  1  0
 10 11  1  0
 11 12  2  0
 12 13  1  0
 13 14  2  0
 14 15  1  0
 15 16  1  0
 16 17  1  0
 17 18  1  0
 18 19  1  0
 19 20  1  0
 14 21  1  0
 21 22  2  0
  9 23  1  0
 23 24  2  0
 24 25  1  0
 25 26  1  0
 26 27  1  0
 27 28  1  0
 28 29  1  0
 29 30  1  0
 25  4  1  0
 30 26  1  0
 24  6  1  0
 22 11  1  0
 20 15  1  0
  1 31  1  0
  1 32  1  0
  1 33  1  0
  2 34  1  6
  3 35  1  0
  5 36  1  0
  7 37  1  0
 10 38  1  0
 12 39  1  0
 13 40  1  0
 16 41  1  0
 16 42  1  0
 17 43  1  0
 17 44  1  0
 18 45  1  0
 19 46  1  0
 19 47  1  0
 20 48  1  0
 20 49  1  0
 21 50  1  0
 26 51  1  0
 27 52  1  0
 27 53  1  0
 28 54  1  0
 28 55  1  0
 29 56  1  0
 29 57  1  0
 30 58  1  0
 30 59  1  0
M  END
>  <meeko>  (1) 
{"is_sidechain": false}

>  <smiles>  (1) 
C[C@@H](O)c1cc2cnc(Nc3ccc(N4CCNCC4)cn3)nc2n1C1CCCC1

>  <vina_score>  (1) 
-7.806

>  <job_id>  (1) 
50a8cfaec51e9d90

$$$$
