
     RDKit          3D

 60 62  0  0  0  0  0  0  0  0999 V2000
   63.2410   79.1360   36.6260 C   0  0  0  0  0  0  0  0  0  0  0  0
   62.4420   79.8370   35.5670 C   0  0  0  0  0  0  0  0  0  0  0  0
   61.0520   79.6900   35.5120 C   0  0  0  0  0  0  0  0  0  0  0  0
   60.3040   80.3630   34.5430 C   0  0  0  0  0  0  0  0  0  0  0  0
   60.9210   81.2110   33.6080 C   0  0  0  0  0  0  0  0  0  0  0  0
   60.1490   81.9260   32.6440 N   0  0  0  0  0  0  0  0  0  0  0  0
   59.0660   82.6870   33.3130 C   0  0  0  0  0  0  0  0  0  0  0  0
   58.5890   83.8650   32.5530 C   0  0  0  0  0  0  0  0  0  0  0  0
   58.2020   84.7990   31.9810 N   0  0  0  0  0  0  0  0  0  0  0  0
   59.8810   81.4500   31.3360 C   0  0  0  0  0  0  0  0  0  0  0  0
   58.9770   80.4200   31.1130 C   0  0  0  0  0  0  0  0  0  0  0  0
   58.7310   80.0190   29.8070 C   0  0  0  0  0  0  0  0  0  0  0  0
   57.8040   78.9630   29.6130 N   0  0  0  0  0  0  0  0  0  0  0  0
   56.6270   78.9560   28.8320 C   0  0  0  0  0  0  0  0  0  0  0  0
   55.5870   78.0800   29.1790 C   0  0  0  0  0  0  0  0  0  0  0  0
   54.4230   77.9830   28.4030 C   0  0  0  0  0  0  0  0  0  0  0  0
   54.2870   78.7470   27.2470 C   0  0  0  0  0  0  0  0  0  0  0  0
   53.2140   78.7490   26.4010 O   0  0  0  0  0  0  0  0  0  0  0  0
   53.3510   79.4880   25.1780 C   0  0  0  0  0  0  0  0  0  0  0  0
   52.5410   80.7860   25.3050 C   0  0  0  0  0  0  0  0  0  0  0  0
   51.3350   80.7010   24.5300 O   0  0  0  0  0  0  0  0  0  0  0  0
   53.3590   82.0390   24.9080 C   0  0  0  0  0  0  0  0  0  0  0  0
   53.9740   82.8110   26.0100 N   0  0  0  0  0  0  0  0  0  0  0  0
   53.9170   84.2550   25.7710 C   0  0  0  0  0  0  0  0  0  0  0  0
   53.3040   82.4940   27.2750 C   0  0  0  0  0  0  0  0  0  0  0  0
   55.3280   79.5960   26.8750 C   0  0  0  0  0  0  0  0  0  0  0  0
   56.4900   79.6890   27.6510 C   0  0  0  0  0  0  0  0  0  0  0  0
   59.3470   80.6030   28.7740 N   0  0  0  0  0  0  0  0  0  0  0  0
   60.1770   81.6060   29.0660 C   0  0  0  0  0  0  0  0  0  0  0  0
   60.4610   82.0630   30.2910 N   0  0  0  0  0  0  0  0  0  0  0  0
   62.3200   81.3620   33.6790 C   0  0  0  0  0  0  0  0  0  0  0  0
   63.2640   82.4740   32.4550 Br  0  0  0  0  0  0  0  0  0  0  0  0
   63.0710   80.6860   34.6500 C   0  0  0  0  0  0  0  0  0  0  0  0
   62.8860   79.4474   37.6195 H   0  0  0  0  0  0  0  0  0  0  0  0
   63.1190   78.0482   36.5174 H   0  0  0  0  0  0  0  0  0  0  0  0
   64.3037   79.3985   36.5174 H   0  0  0  0  0  0  0  0  0  0  0  0
   60.5435   79.0388   36.2382 H   0  0  0  0  0  0  0  0  0  0  0  0
   59.2129   80.2267   34.5114 H   0  0  0  0  0  0  0  0  0  0  0  0
   58.2138   82.0090   33.4680 H   0  0  0  0  0  0  0  0  0  0  0  0
   59.4856   83.0692   34.2553 H   0  0  0  0  0  0  0  0  0  0  0  0
   58.4655   79.9311   31.9552 H   0  0  0  0  0  0  0  0  0  0  0  0
   57.6690   78.4670   30.4870 H   0  0  0  0  0  0  0  0  0  0  0  0
   55.6870   77.4559   30.0793 H   0  0  0  0  0  0  0  0  0  0  0  0
   53.6153   77.3016   28.7084 H   0  0  0  0  0  0  0  0  0  0  0  0
   54.4107   79.7265   25.0044 H   0  0  0  0  0  0  0  0  0  0  0  0
   52.9801   78.8915   24.3315 H   0  0  0  0  0  0  0  0  0  0  0  0
   52.2797   80.9012   26.3673 H   0  0  0  0  0  0  0  0  0  0  0  0
   50.5890   80.7430   25.1510 H   0  0  0  0  0  0  0  0  0  0  0  0
   54.1686   81.7099   24.2400 H   0  0  0  0  0  0  0  0  0  0  0  0
   52.6314   82.7238   24.4480 H   0  0  0  0  0  0  0  0  0  0  0  0
   53.8961   84.7856   26.7344 H   0  0  0  0  0  0  0  0  0  0  0  0
   54.8035   84.5674   25.1996 H   0  0  0  0  0  0  0  0  0  0  0  0
   53.0086   84.4965   25.1996 H   0  0  0  0  0  0  0  0  0  0  0  0
   53.9453   82.7974   28.1157 H   0  0  0  0  0  0  0  0  0  0  0  0
   52.3479   83.0352   27.3292 H   0  0  0  0  0  0  0  0  0  0  0  0
   53.1161   81.4115   27.3292 H   0  0  0  0  0  0  0  0  0  0  0  0
   55.2356   80.2004   25.9606 H   0  0  0  0  0  0  0  0  0  0  0  0
   57.3073   80.3494   27.3255 H   0  0  0  0  0  0  0  0  0  0  0  0
   60.6743   82.1038   28.2205 H   0  0  0  0  0  0  0  0  0  0  0  0
   64.1616   80.8237   34.6914 H   0  0  0  0  0  0  0  0  0  0  0  0
  1  2  1  0
  2  3  1  0
  3  4  2  0
  4  5  1  0
  5  6  1  0
  6  7  1  0
  7  8  1  0
  8  9  3  0
  6 10  1  0
 10 11  1  0
 11 12  2  0
 12 13  1  0
 13 14  1  0
 14 15  1  0
 15 16  2  0
 16 17  1  0
 17 18  1  0
 18 19  1  0
 19 20  1  0
 20 21  1  0
 20 22  1  0
 22 23  1  0
 23 24  1  0
 23 25  1  0
 17 26  2  0
 26 27  1  0
 12 28  1  0
 28 29  2  0
 29 30  1  0
  5 31  2  0
 31 32  1  0
 31 33  1  0
 33  2  2  0
 30 10  2  0
 27 14  2  0
  1 34  1  0
  1 35  1  0
  1 36  1  0
  3 37  1  0
  4 38  1  0
  7 39  1  0
  7 40  1  0
 11 41  1  0
 13 42  1  0
 15 43  1  0
 16 44  1  0
 19 45  1  0
 19 46  1  0
 20 47  1  0
 21 48  1  0
 22 49  1  0
 22 50  1  0
 24 51  1  0
 24 52  1  0
 24 53  1  0
 25 54  1  0
 25 55  1  0
 25 56  1  0
 26 57  1  0
 27 58  1  0
 29 59  1  0
 33 60  1  0
M  END
>  <meeko>  (1) 
{"is_sidechain": false}

>  <smiles>  (1) 
Cc1ccc(N(CC#N)c2cc(Nc3ccc(OCC(O)CN(C)C)cc3)ncn2)c(Br)c1

>  <vina_score>  (1) 
-7.839

>  <job_id>  (1) 
51c2abe54a009663

$$$$
