
     RDKit          3D

 39 41  0  0  0  0  0  0  0  0999 V2000
   54.4360   75.9340   29.1450 N   0  0  0  0  0  0  0  0  0  0  0  0
   55.2230   76.9770   28.7830 C   0  0  0  0  0  0  0  0  0  0  0  0
   56.4800   77.1140   29.1100 N   0  0  0  0  0  0  0  0  0  0  0  0
   56.8200   78.3430   28.6270 C   0  0  0  0  0  0  0  0  0  0  0  0
   58.0430   78.8820   28.7910 N   0  0  0  0  0  0  0  0  0  0  0  0
   58.5460   79.8940   29.6300 C   0  0  0  0  0  0  0  0  0  0  0  0
   59.3890   80.9230   29.1920 C   0  0  0  0  0  0  0  0  0  0  0  0
   59.8720   81.8940   30.0760 C   0  0  0  0  0  0  0  0  0  0  0  0
   59.5100   81.8440   31.4210 C   0  0  0  0  0  0  0  0  0  0  0  0
   60.1440   83.0480   32.5480 S   0  0  0  0  0  0  0  0  0  0  0  0
   59.5630   82.4870   34.0200 N   0  0  0  0  0  0  0  0  0  0  0  0
   59.4860   84.3140   32.3190 O   0  0  0  0  0  0  0  0  0  0  0  0
   61.5820   82.9260   32.6180 O   0  0  0  0  0  0  0  0  0  0  0  0
   58.6880   80.8210   31.8910 C   0  0  0  0  0  0  0  0  0  0  0  0
   58.2120   79.8570   30.9960 C   0  0  0  0  0  0  0  0  0  0  0  0
   55.8320   78.9860   28.0070 N   0  0  0  0  0  0  0  0  0  0  0  0
   54.8200   78.0790   28.0370 N   0  0  0  0  0  0  0  0  0  0  0  0
   53.6100   78.3240   27.3700 C   0  0  0  0  0  0  0  0  0  0  0  0
   52.6000   77.7040   27.7020 O   0  0  0  0  0  0  0  0  0  0  0  0
   53.4660   79.3040   26.2970 C   0  0  0  0  0  0  0  0  0  0  0  0
   53.4640   78.8940   24.9710 C   0  0  0  0  0  0  0  0  0  0  0  0
   53.6570   77.6070   24.6550 F   0  0  0  0  0  0  0  0  0  0  0  0
   53.3100   79.8260   23.9470 C   0  0  0  0  0  0  0  0  0  0  0  0
   53.1520   81.1790   24.2580 C   0  0  0  0  0  0  0  0  0  0  0  0
   53.1530   81.5910   25.5940 C   0  0  0  0  0  0  0  0  0  0  0  0
   53.3090   80.6490   26.6070 C   0  0  0  0  0  0  0  0  0  0  0  0
   53.3100   81.0570   27.8840 F   0  0  0  0  0  0  0  0  0  0  0  0
   54.6180   75.1120   28.5660 H   0  0  0  0  0  0  0  0  0  0  0  0
   54.4850   75.6440   30.1200 H   0  0  0  0  0  0  0  0  0  0  0  0
   58.7530   78.4420   28.2190 H   0  0  0  0  0  0  0  0  0  0  0  0
   59.6773   80.9688   28.1314 H   0  0  0  0  0  0  0  0  0  0  0  0
   60.5342   82.6930   29.7112 H   0  0  0  0  0  0  0  0  0  0  0  0
   58.5550   82.3420   33.9610 H   0  0  0  0  0  0  0  0  0  0  0  0
   60.0850   81.6580   34.3040 H   0  0  0  0  0  0  0  0  0  0  0  0
   58.4162   80.7722   32.9558 H   0  0  0  0  0  0  0  0  0  0  0  0
   57.5618   79.0518   31.3688 H   0  0  0  0  0  0  0  0  0  0  0  0
   53.3128   79.4978   22.8971 H   0  0  0  0  0  0  0  0  0  0  0  0
   53.0271   81.9185   23.4533 H   0  0  0  0  0  0  0  0  0  0  0  0
   53.0310   82.6553   25.8437 H   0  0  0  0  0  0  0  0  0  0  0  0
  1  2  1  0
  2  3  2  0
  3  4  1  0
  4  5  1  0
  5  6  1  0
  6  7  1  0
  7  8  2  0
  8  9  1  0
  9 10  1  0
 10 11  1  0
 10 12  2  0
 10 13  2  0
  9 14  2  0
 14 15  1  0
  4 16  2  0
 16 17  1  0
 17 18  1  0
 18 19  2  0
 18 20  1  0
 20 21  2  0
 21 22  1  0
 21 23  1  0
 23 24  2  0
 24 25  1  0
 25 26  2  0
 26 27  1  0
 17  2  1  0
 26 20  1  0
 15  6  2  0
  1 28  1  0
  1 29  1  0
  5 30  1  0
  7 31  1  0
  8 32  1  0
 11 33  1  0
 11 34  1  0
 14 35  1  0
 15 36  1  0
 23 37  1  0
 24 38  1  0
 25 39  1  0
M  END
>  <meeko>  (1) 
{"is_sidechain": false}

>  <smiles>  (1) 
Nc1nc(Nc2ccc(S(N)(=O)=O)cc2)nn1C(=O)c1c(F)cccc1F

>  <vina_score>  (1) 
-8.555

>  <job_id>  (1) 
527dee11f0a165d3

$$$$
