
     RDKit          3D

 47 48  0  0  0  0  0  0  0  0999 V2000
   55.1590   76.4690   30.0350 C   0  0  0  0  0  0  0  0  0  0  0  0
   54.6490   77.2740   28.8770 C   0  0  0  0  0  0  0  0  0  0  0  0
   53.4110   76.9610   28.3080 C   0  0  0  0  0  0  0  0  0  0  0  0
   52.9360   77.6900   27.2210 C   0  0  0  0  0  0  0  0  0  0  0  0
   53.7070   78.7260   26.7100 C   0  0  0  0  0  0  0  0  0  0  0  0
   53.2870   79.5590   25.5640 C   0  0  0  0  0  0  0  0  0  0  0  0
   52.9680   80.9240   25.7090 C   0  0  0  0  0  0  0  0  0  0  0  0
   52.5770   81.7010   24.6130 C   0  0  0  0  0  0  0  0  0  0  0  0
   52.5080   81.1190   23.3460 C   0  0  0  0  0  0  0  0  0  0  0  0
   52.0160   82.1050   21.9600 S   0  0  0  0  0  0  0  0  0  0  0  0
   50.4780   81.4950   21.6440 N   0  0  0  0  0  0  0  0  0  0  0  0
   52.8630   81.7760   20.8390 O   0  0  0  0  0  0  0  0  0  0  0  0
   51.8130   83.4640   22.4100 O   0  0  0  0  0  0  0  0  0  0  0  0
   52.8080   79.7690   23.1690 C   0  0  0  0  0  0  0  0  0  0  0  0
   53.2000   79.0050   24.2710 C   0  0  0  0  0  0  0  0  0  0  0  0
   54.9170   79.0320   27.2400 N   0  0  0  0  0  0  0  0  0  0  0  0
   55.3760   78.3220   28.3050 C   0  0  0  0  0  0  0  0  0  0  0  0
   56.7210   78.7620   28.8330 C   0  0  0  0  0  0  0  0  0  0  0  0
   57.3630   79.8940   28.0210 C   0  0  0  0  0  0  0  0  0  0  0  0
   58.7890   80.2330   28.4770 C   0  0  0  0  0  0  0  0  0  0  0  0
   58.8360   81.1940   29.6800 C   0  0  0  0  0  0  0  0  0  0  0  0
   58.8680   80.4590   31.0190 C   0  0  0  0  0  0  0  0  0  0  0  0
   60.0620   82.1050   29.5640 C   0  0  0  0  0  0  0  0  0  0  0  0
   54.8551   76.9486   30.9771 H   0  0  0  0  0  0  0  0  0  0  0  0
   54.7393   75.4533   29.9886 H   0  0  0  0  0  0  0  0  0  0  0  0
   56.2567   76.4146   29.9886 H   0  0  0  0  0  0  0  0  0  0  0  0
   52.8106   76.1366   28.7201 H   0  0  0  0  0  0  0  0  0  0  0  0
   51.9613   77.4482   26.7721 H   0  0  0  0  0  0  0  0  0  0  0  0
   53.0276   81.3883   26.7044 H   0  0  0  0  0  0  0  0  0  0  0  0
   52.3257   82.7633   24.7488 H   0  0  0  0  0  0  0  0  0  0  0  0
   50.4580   80.4780   21.5700 H   0  0  0  0  0  0  0  0  0  0  0  0
   49.8360   81.8360   22.3630 H   0  0  0  0  0  0  0  0  0  0  0  0
   52.7368   79.3101   22.1718 H   0  0  0  0  0  0  0  0  0  0  0  0
   53.4473   77.9430   24.1257 H   0  0  0  0  0  0  0  0  0  0  0  0
   56.5908   79.1085   29.8688 H   0  0  0  0  0  0  0  0  0  0  0  0
   57.3934   77.8944   28.7615 H   0  0  0  0  0  0  0  0  0  0  0  0
   57.3970   79.5903   26.9643 H   0  0  0  0  0  0  0  0  0  0  0  0
   56.7489   80.7939   28.1732 H   0  0  0  0  0  0  0  0  0  0  0  0
   59.2965   79.2983   28.7577 H   0  0  0  0  0  0  0  0  0  0  0  0
   59.2858   80.7407   27.6371 H   0  0  0  0  0  0  0  0  0  0  0  0
   57.9119   81.7902   29.6569 H   0  0  0  0  0  0  0  0  0  0  0  0
   58.8361   81.1907   31.8398 H   0  0  0  0  0  0  0  0  0  0  0  0
   57.9982   79.7895   31.0907 H   0  0  0  0  0  0  0  0  0  0  0  0
   59.7927   79.8676   31.0907 H   0  0  0  0  0  0  0  0  0  0  0  0
   60.4185   82.3699   30.5703 H   0  0  0  0  0  0  0  0  0  0  0  0
   60.8596   81.5787   29.0192 H   0  0  0  0  0  0  0  0  0  0  0  0
   59.7883   83.0206   29.0192 H   0  0  0  0  0  0  0  0  0  0  0  0
  1  2  1  0
  2  3  1  0
  3  4  2  0
  4  5  1  0
  5  6  1  0
  6  7  1  0
  7  8  2  0
  8  9  1  0
  9 10  1  0
 10 11  1  0
 10 12  2  0
 10 13  2  0
  9 14  2  0
 14 15  1  0
  5 16  2  0
 16 17  1  0
 17 18  1  0
 18 19  1  0
 19 20  1  0
 20 21  1  0
 21 22  1  0
 21 23  1  0
 17  2  2  0
 15  6  2  0
  1 24  1  0
  1 25  1  0
  1 26  1  0
  3 27  1  0
  4 28  1  0
  7 29  1  0
  8 30  1  0
 11 31  1  0
 11 32  1  0
 14 33  1  0
 15 34  1  0
 18 35  1  0
 18 36  1  0
 19 37  1  0
 19 38  1  0
 20 39  1  0
 20 40  1  0
 21 41  1  0
 22 42  1  0
 22 43  1  0
 22 44  1  0
 23 45  1  0
 23 46  1  0
 23 47  1  0
M  END
>  <meeko>  (1) 
{"is_sidechain": false}

>  <smiles>  (1) 
Cc1ccc(-c2ccc(S(N)(=O)=O)cc2)nc1CCCC(C)C

>  <vina_score>  (1) 
-8.359

>  <job_id>  (1) 
528b28568ca46c8f

$$$$
