
     RDKit          3D

 42 44  0  0  0  0  0  0  0  0999 V2000
   58.5600   79.1040   28.0200 O   0  0  0  0  0  0  0  0  0  0  0  0
   57.7850   80.0510   28.1220 C   0  0  0  0  0  0  0  0  0  0  0  0
   56.6540   80.2290   27.1160 C   0  0  0  0  0  0  0  0  0  0  0  0
   55.4820   79.2960   27.3250 C   0  0  0  0  0  0  0  0  0  0  0  0
   55.4110   78.4890   28.4690 C   0  0  0  0  0  0  0  0  0  0  0  0
   54.3280   77.6260   28.6570 C   0  0  0  0  0  0  0  0  0  0  0  0
   53.3090   77.5730   27.7080 C   0  0  0  0  0  0  0  0  0  0  0  0
   51.9780   76.5080   27.9430 Cl  0  0  0  0  0  0  0  0  0  0  0  0
   53.3620   78.3770   26.5720 C   0  0  0  0  0  0  0  0  0  0  0  0
   54.4440   79.2390   26.3820 C   0  0  0  0  0  0  0  0  0  0  0  0
   57.8430   81.0630   29.0660 N   0  0  0  0  0  0  0  0  0  0  0  0
   58.7760   81.2150   30.1100 C   0  0  0  0  0  0  0  0  0  0  0  0
   59.9120   82.0140   30.0370 C   0  0  0  0  0  0  0  0  0  0  0  0
   60.7860   82.1070   31.1310 C   0  0  0  0  0  0  0  0  0  0  0  0
   60.5540   81.4190   32.3330 C   0  0  0  0  0  0  0  0  0  0  0  0
   61.4680   81.5420   33.3910 N   0  0  0  0  0  0  0  0  0  0  0  0
   61.1380   82.6270   34.3500 C   0  0  0  0  0  0  0  0  0  0  0  0
   62.3130   82.8500   35.3170 C   0  0  0  0  0  0  0  0  0  0  0  0
   62.6770   81.6400   36.0020 O   0  0  0  0  0  0  0  0  0  0  0  0
   63.0600   80.6370   35.0470 C   0  0  0  0  0  0  0  0  0  0  0  0
   61.9070   80.3130   34.0850 C   0  0  0  0  0  0  0  0  0  0  0  0
   59.4160   80.6070   32.3820 C   0  0  0  0  0  0  0  0  0  0  0  0
   58.5360   80.5100   31.2920 C   0  0  0  0  0  0  0  0  0  0  0  0
   56.2878   81.2637   27.1889 H   0  0  0  0  0  0  0  0  0  0  0  0
   57.0725   79.9921   26.1267 H   0  0  0  0  0  0  0  0  0  0  0  0
   56.2114   78.5352   29.2222 H   0  0  0  0  0  0  0  0  0  0  0  0
   54.2800   76.9895   29.5528 H   0  0  0  0  0  0  0  0  0  0  0  0
   52.5541   78.3331   25.8268 H   0  0  0  0  0  0  0  0  0  0  0  0
   54.4831   79.8777   25.4873 H   0  0  0  0  0  0  0  0  0  0  0  0
   57.1010   81.7520   29.0360 H   0  0  0  0  0  0  0  0  0  0  0  0
   60.1267   82.5764   29.1163 H   0  0  0  0  0  0  0  0  0  0  0  0
   61.6819   82.7393   31.0442 H   0  0  0  0  0  0  0  0  0  0  0  0
   60.9415   83.5563   33.7951 H   0  0  0  0  0  0  0  0  0  0  0  0
   60.2458   82.3406   34.9261 H   0  0  0  0  0  0  0  0  0  0  0  0
   63.1810   83.2107   34.7456 H   0  0  0  0  0  0  0  0  0  0  0  0
   62.0010   83.5887   36.0699 H   0  0  0  0  0  0  0  0  0  0  0  0
   63.9187   81.0047   34.4661 H   0  0  0  0  0  0  0  0  0  0  0  0
   63.3240   79.7198   35.5938 H   0  0  0  0  0  0  0  0  0  0  0  0
   62.2482   79.5771   33.3420 H   0  0  0  0  0  0  0  0  0  0  0  0
   61.0634   79.9006   34.6579 H   0  0  0  0  0  0  0  0  0  0  0  0
   59.2056   80.0312   33.2954 H   0  0  0  0  0  0  0  0  0  0  0  0
   57.6449   79.8698   31.3700 H   0  0  0  0  0  0  0  0  0  0  0  0
  1  2  2  0
  2  3  1  0
  3  4  1  0
  4  5  1  0
  5  6  2  0
  6  7  1  0
  7  8  1  0
  7  9  2  0
  9 10  1  0
  2 11  1  0
 11 12  1  0
 12 13  1  0
 13 14  2  0
 14 15  1  0
 15 16  1  0
 16 17  1  0
 17 18  1  0
 18 19  1  0
 19 20  1  0
 20 21  1  0
 15 22  2  0
 22 23  1  0
 10  4  2  0
 23 12  2  0
 21 16  1  0
  3 24  1  0
  3 25  1  0
  5 26  1  0
  6 27  1  0
  9 28  1  0
 10 29  1  0
 11 30  1  0
 13 31  1  0
 14 32  1  0
 17 33  1  0
 17 34  1  0
 18 35  1  0
 18 36  1  0
 20 37  1  0
 20 38  1  0
 21 39  1  0
 21 40  1  0
 22 41  1  0
 23 42  1  0
M  END
>  <meeko>  (1) 
{"is_sidechain": false}

>  <smiles>  (1) 
O=C(Cc1ccc(Cl)cc1)Nc1ccc(N2CCOCC2)cc1

>  <vina_score>  (1) 
-7.626

>  <job_id>  (1) 
52a09dbd101e6ae6

$$$$
