
     RDKit          3D

 53 55  0  0  0  0  0  0  0  0999 V2000
   63.9120   84.3560   30.0180 C   0  0  0  0  0  0  0  0  0  0  0  0
   63.0280   83.3950   30.7670 C   0  0  0  0  0  0  0  0  0  0  0  0
   63.7080   82.1120   31.1660 C   0  0  0  0  0  0  0  0  0  0  0  0
   61.7430   83.7060   31.0200 C   0  0  0  0  0  0  0  0  0  0  0  0
   60.7930   82.8720   31.8140 C   0  0  0  0  0  0  0  0  0  0  0  0
   60.5840   83.0730   33.0060 O   0  0  0  0  0  0  0  0  0  0  0  0
   60.0300   81.8170   31.0920 C   0  0  0  0  0  0  0  0  0  0  0  0
   59.3050   80.8240   31.7550 C   0  0  0  0  0  0  0  0  0  0  0  0
   58.6000   79.8570   31.0240 C   0  0  0  0  0  0  0  0  0  0  0  0
   58.5860   79.8640   29.6250 C   0  0  0  0  0  0  0  0  0  0  0  0
   57.9170   78.9160   28.8460 N   0  0  0  0  0  0  0  0  0  0  0  0
   56.5890   78.5150   28.7320 C   0  0  0  0  0  0  0  0  0  0  0  0
   55.9940   77.7480   29.6570 N   0  0  0  0  0  0  0  0  0  0  0  0
   54.7040   77.4250   29.4590 C   0  0  0  0  0  0  0  0  0  0  0  0
   53.9830   77.8300   28.3680 C   0  0  0  0  0  0  0  0  0  0  0  0
   54.6750   78.5980   27.4620 C   0  0  0  0  0  0  0  0  0  0  0  0
   54.0380   79.1220   26.2590 C   0  0  0  0  0  0  0  0  0  0  0  0
   53.4520   78.4280   25.2190 C   0  0  0  0  0  0  0  0  0  0  0  0
   52.9350   79.2700   24.2820 N   0  0  0  0  0  0  0  0  0  0  0  0
   53.1720   80.4890   24.7180 C   0  0  0  0  0  0  0  0  0  0  0  0
   52.7300   81.7110   23.9980 C   0  0  0  0  0  0  0  0  0  0  0  0
   53.8860   80.4590   25.9060 N   0  0  0  0  0  0  0  0  0  0  0  0
   54.4210   81.5970   26.6560 C   0  0  0  0  0  0  0  0  0  0  0  0
   53.3100   82.4820   27.2220 C   0  0  0  0  0  0  0  0  0  0  0  0
   55.4670   82.4180   25.8980 C   0  0  0  0  0  0  0  0  0  0  0  0
   55.9650   78.9500   27.6270 N   0  0  0  0  0  0  0  0  0  0  0  0
   59.3120   80.8740   28.9750 C   0  0  0  0  0  0  0  0  0  0  0  0
   60.0200   81.8440   29.6950 C   0  0  0  0  0  0  0  0  0  0  0  0
   64.4767   84.9699   30.7352 H   0  0  0  0  0  0  0  0  0  0  0  0
   64.6137   83.7921   29.3858 H   0  0  0  0  0  0  0  0  0  0  0  0
   63.2916   85.0082   29.3858 H   0  0  0  0  0  0  0  0  0  0  0  0
   63.7449   82.0424   32.2632 H   0  0  0  0  0  0  0  0  0  0  0  0
   63.1443   81.2576   30.7631 H   0  0  0  0  0  0  0  0  0  0  0  0
   64.7315   82.0988   30.7631 H   0  0  0  0  0  0  0  0  0  0  0  0
   61.3618   84.6520   30.6080 H   0  0  0  0  0  0  0  0  0  0  0  0
   59.2870   80.8005   32.8546 H   0  0  0  0  0  0  0  0  0  0  0  0
   58.0452   79.0749   31.5630 H   0  0  0  0  0  0  0  0  0  0  0  0
   58.4570   78.4490   28.1320 H   0  0  0  0  0  0  0  0  0  0  0  0
   54.2012   76.8023   30.2136 H   0  0  0  0  0  0  0  0  0  0  0  0
   52.9260   77.5603   28.2266 H   0  0  0  0  0  0  0  0  0  0  0  0
   53.4082   77.3307   25.1553 H   0  0  0  0  0  0  0  0  0  0  0  0
   52.4499   82.4853   24.7274 H   0  0  0  0  0  0  0  0  0  0  0  0
   53.5510   82.0818   23.3667 H   0  0  0  0  0  0  0  0  0  0  0  0
   51.8618   81.4708   23.3667 H   0  0  0  0  0  0  0  0  0  0  0  0
   54.9632   81.1486   27.5016 H   0  0  0  0  0  0  0  0  0  0  0  0
   53.3439   82.4550   28.3211 H   0  0  0  0  0  0  0  0  0  0  0  0
   53.4530   83.5163   26.8760 H   0  0  0  0  0  0  0  0  0  0  0  0
   52.3338   82.1113   26.8760 H   0  0  0  0  0  0  0  0  0  0  0  0
   56.1216   82.9318   26.6174 H   0  0  0  0  0  0  0  0  0  0  0  0
   56.0701   81.7496   25.2659 H   0  0  0  0  0  0  0  0  0  0  0  0
   54.9610   83.1626   25.2659 H   0  0  0  0  0  0  0  0  0  0  0  0
   59.3251   80.9043   27.8755 H   0  0  0  0  0  0  0  0  0  0  0  0
   60.5707   82.6307   29.1585 H   0  0  0  0  0  0  0  0  0  0  0  0
  1  2  1  0
  2  3  1  0
  2  4  2  3
  4  5  1  0
  5  6  2  0
  5  7  1  0
  7  8  1  0
  8  9  2  0
  9 10  1  0
 10 11  1  0
 11 12  1  0
 12 13  2  0
 13 14  1  0
 14 15  2  0
 15 16  1  0
 16 17  1  0
 17 18  2  0
 18 19  1  0
 19 20  2  0
 20 21  1  0
 20 22  1  0
 22 23  1  0
 23 24  1  0
 23 25  1  0
 16 26  2  0
 10 27  2  0
 27 28  1  0
 28  7  2  0
 26 12  1  0
 22 17  1  0
  1 29  1  0
  1 30  1  0
  1 31  1  0
  3 32  1  0
  3 33  1  0
  3 34  1  0
  4 35  1  0
  8 36  1  0
  9 37  1  0
 11 38  1  0
 14 39  1  0
 15 40  1  0
 18 41  1  0
 21 42  1  0
 21 43  1  0
 21 44  1  0
 23 45  1  0
 24 46  1  0
 24 47  1  0
 24 48  1  0
 25 49  1  0
 25 50  1  0
 25 51  1  0
 27 52  1  0
 28 53  1  0
M  END
>  <meeko>  (1) 
{"is_sidechain": false}

>  <smiles>  (1) 
CC(C)=CC(=O)c1ccc(Nc2nccc(-c3cnc(C)n3C(C)C)n2)cc1

>  <vina_score>  (1) 
-8.922

>  <job_id>  (1) 
52e07efb565ecad6

$$$$
