
     RDKit          3D

 53 56  0  0  0  0  0  0  0  0999 V2000
   52.8530   83.4530   26.4650 N   0  0  0  0  0  0  0  0  0  0  0  0
   53.7730   84.3520   25.7700 C   0  0  0  0  0  0  0  0  0  0  0  0
   55.1110   84.5190   26.5200 C   0  0  0  0  0  0  0  0  0  0  0  0
   56.1330   83.5170   26.1960 N   0  0  0  0  0  0  0  0  0  0  0  0
   56.2730   82.4390   27.1890 C   0  0  0  0  0  0  0  0  0  0  0  0
   56.4590   81.0370   26.5990 C   0  0  0  0  0  0  0  0  0  0  0  0
   55.1830   80.4100   26.2950 N   0  0  0  0  0  0  0  0  0  0  0  0
   54.4430   80.9070   25.2720 N   0  0  0  0  0  0  0  0  0  0  0  0
   53.3530   80.1080   25.2170 C   0  0  0  0  0  0  0  0  0  0  0  0
   52.2840   80.3290   24.2330 C   0  0  0  0  0  0  0  0  0  0  0  0
   51.4380   81.3570   24.5500 N   0  0  0  0  0  0  0  0  0  0  0  0
   52.1360   79.6650   23.2120 O   0  0  0  0  0  0  0  0  0  0  0  0
   53.4200   79.1050   26.2140 C   0  0  0  0  0  0  0  0  0  0  0  0
   54.6010   79.3320   26.8960 C   0  0  0  0  0  0  0  0  0  0  0  0
   55.0340   78.5230   28.0180 C   0  0  0  0  0  0  0  0  0  0  0  0
   56.0580   78.9730   28.7540 N   0  0  0  0  0  0  0  0  0  0  0  0
   56.4210   78.2230   29.8040 C   0  0  0  0  0  0  0  0  0  0  0  0
   57.4860   78.7360   30.5380 N   0  0  0  0  0  0  0  0  0  0  0  0
   58.3110   79.8570   30.4080 C   0  0  0  0  0  0  0  0  0  0  0  0
   58.5280   80.6630   31.5400 C   0  0  0  0  0  0  0  0  0  0  0  0
   59.3390   81.8000   31.4820 C   0  0  0  0  0  0  0  0  0  0  0  0
   59.9510   82.1540   30.2840 C   0  0  0  0  0  0  0  0  0  0  0  0
   59.7480   81.3730   29.1520 C   0  0  0  0  0  0  0  0  0  0  0  0
   58.9350   80.2350   29.2160 C   0  0  0  0  0  0  0  0  0  0  0  0
   55.8130   77.0680   30.1290 N   0  0  0  0  0  0  0  0  0  0  0  0
   54.7870   76.6560   29.3590 C   0  0  0  0  0  0  0  0  0  0  0  0
   54.3300   77.3590   28.2760 C   0  0  0  0  0  0  0  0  0  0  0  0
   53.2230   76.8810   27.3680 C   0  0  0  0  0  0  0  0  0  0  0  0
   52.4850   78.0130   26.6040 C   0  0  0  0  0  0  0  0  0  0  0  0
   52.9620   82.5050   26.1060 H   0  0  0  0  0  0  0  0  0  0  0  0
   51.8910   83.7220   26.2650 H   0  0  0  0  0  0  0  0  0  0  0  0
   53.9775   83.9436   24.7693 H   0  0  0  0  0  0  0  0  0  0  0  0
   53.2954   85.3412   25.7117 H   0  0  0  0  0  0  0  0  0  0  0  0
   55.5172   85.5118   26.2763 H   0  0  0  0  0  0  0  0  0  0  0  0
   54.8826   84.3907   27.5883 H   0  0  0  0  0  0  0  0  0  0  0  0
   57.0350   83.9870   26.1040 H   0  0  0  0  0  0  0  0  0  0  0  0
   57.1479   82.6643   27.8165 H   0  0  0  0  0  0  0  0  0  0  0  0
   55.3280   82.4136   27.7514 H   0  0  0  0  0  0  0  0  0  0  0  0
   57.0480   81.1147   25.6732 H   0  0  0  0  0  0  0  0  0  0  0  0
   56.9780   80.4165   27.3443 H   0  0  0  0  0  0  0  0  0  0  0  0
   50.6590   81.5720   23.9480 H   0  0  0  0  0  0  0  0  0  0  0  0
   51.5930   81.8590   25.4160 H   0  0  0  0  0  0  0  0  0  0  0  0
   57.6700   78.1220   31.3190 H   0  0  0  0  0  0  0  0  0  0  0  0
   58.0487   80.3925   32.4924 H   0  0  0  0  0  0  0  0  0  0  0  0
   59.4930   82.4136   32.3819 H   0  0  0  0  0  0  0  0  0  0  0  0
   60.5918   83.0466   30.2327 H   0  0  0  0  0  0  0  0  0  0  0  0
   60.2282   81.6503   28.2020 H   0  0  0  0  0  0  0  0  0  0  0  0
   58.7846   79.6273   28.3115 H   0  0  0  0  0  0  0  0  0  0  0  0
   54.2915   75.7073   29.6129 H   0  0  0  0  0  0  0  0  0  0  0  0
   53.6582   76.1936   26.6277 H   0  0  0  0  0  0  0  0  0  0  0  0
   52.4743   76.3988   28.0136 H   0  0  0  0  0  0  0  0  0  0  0  0
   52.0272   77.5927   25.6964 H   0  0  0  0  0  0  0  0  0  0  0  0
   51.7173   78.4357   27.2687 H   0  0  0  0  0  0  0  0  0  0  0  0
  1  2  1  0
  2  3  1  0
  3  4  1  0
  4  5  1  0
  5  6  1  0
  6  7  1  0
  7  8  1  0
  8  9  2  0
  9 10  1  0
 10 11  1  0
 10 12  2  0
  9 13  1  0
 13 14  2  0
 14 15  1  0
 15 16  2  0
 16 17  1  0
 17 18  1  0
 18 19  1  0
 19 20  2  0
 20 21  1  0
 21 22  2  0
 22 23  1  0
 23 24  2  0
 17 25  2  0
 25 26  1  0
 26 27  2  0
 27 28  1  0
 28 29  1  0
 14  7  1  0
 27 15  1  0
 29 13  1  0
 24 19  1  0
  1 30  1  0
  1 31  1  0
  2 32  1  0
  2 33  1  0
  3 34  1  0
  3 35  1  0
  4 36  1  0
  5 37  1  0
  5 38  1  0
  6 39  1  0
  6 40  1  0
 11 41  1  0
 11 42  1  0
 18 43  1  0
 20 44  1  0
 21 45  1  0
 22 46  1  0
 23 47  1  0
 24 48  1  0
 26 49  1  0
 28 50  1  0
 28 51  1  0
 29 52  1  0
 29 53  1  0
M  END
>  <meeko>  (1) 
{"is_sidechain": false}

>  <smiles>  (1) 
NCCNCCn1nc(C(N)=O)c2c1-c1nc(Nc3ccccc3)ncc1CC2

>  <vina_score>  (1) 
-7.564

>  <job_id>  (1) 
531055edd9e77fd2

$$$$
