
     RDKit          3D

 52 53  0  0  0  0  0  0  0  0999 V2000
   53.0140   83.0950   25.2650 C   0  0  0  0  0  0  0  0  0  0  0  0
   53.8930   81.8590   24.9920 C   0  0  0  0  0  0  0  0  0  0  0  0
   53.0710   80.8180   24.1880 C   0  0  2  0  0  0  0  0  0  0  0  0
   52.7830   81.2230   22.7450 C   0  0  0  0  0  0  0  0  0  0  0  0
   51.8100   80.6070   24.8320 O   0  0  0  0  0  0  0  0  0  0  0  0
   54.4890   81.2610   26.2950 C   0  0  1  0  0  0  0  0  0  0  0  0
   53.6850   81.6540   27.5370 C   0  0  0  0  0  0  0  0  0  0  0  0
   54.4990   79.8320   26.1660 O   0  0  0  0  0  0  0  0  0  0  0  0
   55.0720   79.1190   27.1960 C   0  0  0  0  0  0  0  0  0  0  0  0
   56.3130   79.4420   27.6090 N   0  0  0  0  0  0  0  0  0  0  0  0
   56.8370   78.7270   28.6150 C   0  0  0  0  0  0  0  0  0  0  0  0
   58.1180   79.1070   29.0020 N   0  0  0  0  0  0  0  0  0  0  0  0
   58.6250   80.0680   29.8830 C   0  0  0  0  0  0  0  0  0  0  0  0
   58.1700   80.0610   31.2140 C   0  0  0  0  0  0  0  0  0  0  0  0
   58.6320   80.9900   32.1510 C   0  0  0  0  0  0  0  0  0  0  0  0
   59.5730   81.9430   31.7630 C   0  0  0  0  0  0  0  0  0  0  0  0
   60.1750   83.1420   32.9480 S   0  0  0  0  0  0  0  0  0  0  0  0
   59.7770   82.5590   34.3350 N   0  0  0  0  0  0  0  0  0  0  0  0
   61.5690   83.3800   32.5990 O   0  0  0  0  0  0  0  0  0  0  0  0
   59.1830   84.6170   32.5200 C   0  0  0  0  0  0  0  0  0  0  0  0
   57.8640   84.3250   32.3320 F   0  0  0  0  0  0  0  0  0  0  0  0
   59.6110   85.2070   31.3660 F   0  0  0  0  0  0  0  0  0  0  0  0
   59.2340   85.5770   33.4870 F   0  0  0  0  0  0  0  0  0  0  0  0
   60.0350   81.9800   30.4470 C   0  0  0  0  0  0  0  0  0  0  0  0
   59.5620   81.0440   29.5200 C   0  0  0  0  0  0  0  0  0  0  0  0
   56.1800   77.7220   29.2090 N   0  0  0  0  0  0  0  0  0  0  0  0
   54.9420   77.4330   28.7630 C   0  0  0  0  0  0  0  0  0  0  0  0
   54.3250   78.1090   27.7430 C   0  0  0  0  0  0  0  0  0  0  0  0
   52.9620   77.7720   27.2700 C   0  0  0  0  0  0  0  0  0  0  0  0
   52.3530   76.8290   28.0470 F   0  0  0  0  0  0  0  0  0  0  0  0
   52.1160   78.8380   27.2700 F   0  0  0  0  0  0  0  0  0  0  0  0
   52.9430   77.2650   26.0070 F   0  0  0  0  0  0  0  0  0  0  0  0
   52.9113   83.2394   26.3506 H   0  0  0  0  0  0  0  0  0  0  0  0
   53.4835   83.9845   24.8196 H   0  0  0  0  0  0  0  0  0  0  0  0
   52.0197   82.9434   24.8196 H   0  0  0  0  0  0  0  0  0  0  0  0
   54.7602   82.1667   24.3892 H   0  0  0  0  0  0  0  0  0  0  0  0
   53.6917   79.9102   24.1619 H   0  0  0  0  0  0  0  0  0  0  0  0
   52.1455   82.1194   22.7360 H   0  0  0  0  0  0  0  0  0  0  0  0
   53.7299   81.4412   22.2295 H   0  0  0  0  0  0  0  0  0  0  0  0
   52.2660   80.4002   22.2295 H   0  0  0  0  0  0  0  0  0  0  0  0
   51.3150   81.4420   24.8060 H   0  0  0  0  0  0  0  0  0  0  0  0
   55.5055   81.6599   26.4277 H   0  0  0  0  0  0  0  0  0  0  0  0
   54.2484   81.3786   28.4408 H   0  0  0  0  0  0  0  0  0  0  0  0
   53.5089   82.7398   27.5314 H   0  0  0  0  0  0  0  0  0  0  0  0
   52.7200   81.1260   27.5314 H   0  0  0  0  0  0  0  0  0  0  0  0
   58.7910   78.5430   28.5040 H   0  0  0  0  0  0  0  0  0  0  0  0
   57.4328   79.3062   31.5251 H   0  0  0  0  0  0  0  0  0  0  0  0
   58.2566   80.9693   33.1848 H   0  0  0  0  0  0  0  0  0  0  0  0
   60.3050   81.7040   34.5250 H   0  0  0  0  0  0  0  0  0  0  0  0
   60.7673   82.7410   30.1395 H   0  0  0  0  0  0  0  0  0  0  0  0
   59.9337   81.0755   28.4852 H   0  0  0  0  0  0  0  0  0  0  0  0
   54.3959   76.6084   29.2445 H   0  0  0  0  0  0  0  0  0  0  0  0
  1  2  1  0
  2  3  1  0
  3  4  1  0
  3  5  1  0
  2  6  1  0
  6  7  1  0
  6  8  1  0
  8  9  1  0
  9 10  2  0
 10 11  1  0
 11 12  1  0
 12 13  1  0
 13 14  1  0
 14 15  2  0
 15 16  1  0
 16 17  1  0
 17 18  2  0
 17 19  2  0
 17 20  1  0
 20 21  1  0
 20 22  1  0
 20 23  1  0
 16 24  2  0
 24 25  1  0
 11 26  2  0
 26 27  1  0
 27 28  2  0
 28 29  1  0
 29 30  1  0
 29 31  1  0
 29 32  1  0
 28  9  1  0
 25 13  2  0
  1 33  1  0
  1 34  1  0
  1 35  1  0
  2 36  1  0
  3 37  1  6
  4 38  1  0
  4 39  1  0
  4 40  1  0
  5 41  1  0
  6 42  1  1
  7 43  1  0
  7 44  1  0
  7 45  1  0
 12 46  1  0
 14 47  1  0
 15 48  1  0
 18 49  1  0
 24 50  1  0
 25 51  1  0
 27 52  1  0
M  END
>  <meeko>  (1) 
{"is_sidechain": false}

>  <smiles>  (1) 
CC([C@H](C)O)[C@@H](C)Oc1nc(Nc2ccc(S(=N)(=O)C(F)(F)F)cc2)ncc1C(F)(F)F

>  <vina_score>  (1) 
-8.366

>  <job_id>  (1) 
537865378b6fc8f0

$$$$
