
     RDKit          3D

 34 35  0  0  0  0  0  0  0  0999 V2000
   59.6790   81.1680   29.2990 C   0  0  0  0  0  0  0  0  0  0  0  0
   59.2250   79.8460   29.5600 O   0  0  0  0  0  0  0  0  0  0  0  0
   57.9810   79.5140   29.1040 C   0  0  0  0  0  0  0  0  0  0  0  0
   57.1020   78.6080   29.7010 C   0  0  0  0  0  0  0  0  0  0  0  0
   55.8500   78.3560   29.1250 C   0  0  0  0  0  0  0  0  0  0  0  0
   55.4770   79.0070   27.9420 C   0  0  0  0  0  0  0  0  0  0  0  0
   54.1570   78.7580   27.3050 C   0  0  0  0  0  0  0  0  0  0  0  0
   53.5480   77.7220   27.5510 O   0  0  0  0  0  0  0  0  0  0  0  0
   53.6190   79.8250   26.6190 N   0  0  0  0  0  0  0  0  0  0  0  0
   53.1760   79.6570   25.3210 C   0  0  0  0  0  0  0  0  0  0  0  0
   53.4460   78.6810   24.6350 O   0  0  0  0  0  0  0  0  0  0  0  0
   52.4820   80.7820   24.9090 N   0  0  0  0  0  0  0  0  0  0  0  0
   52.0050   81.0710   23.6150 C   0  0  0  0  0  0  0  0  0  0  0  0
   50.6630   80.9820   23.2430 C   0  0  0  0  0  0  0  0  0  0  0  0
   50.2710   81.2710   21.9310 C   0  0  0  0  0  0  0  0  0  0  0  0
   51.2170   81.6460   20.9820 C   0  0  0  0  0  0  0  0  0  0  0  0
   52.5600   81.7310   21.3400 C   0  0  0  0  0  0  0  0  0  0  0  0
   52.9520   81.4430   22.6510 C   0  0  0  0  0  0  0  0  0  0  0  0
   56.3470   79.9280   27.3550 C   0  0  0  0  0  0  0  0  0  0  0  0
   57.5950   80.1730   27.9320 C   0  0  0  0  0  0  0  0  0  0  0  0
   59.8579   81.6889   30.2512 H   0  0  0  0  0  0  0  0  0  0  0  0
   60.6146   81.1272   28.7220 H   0  0  0  0  0  0  0  0  0  0  0  0
   58.9157   81.7106   28.7220 H   0  0  0  0  0  0  0  0  0  0  0  0
   57.3936   78.0904   30.6268 H   0  0  0  0  0  0  0  0  0  0  0  0
   55.1588   77.6459   29.6024 H   0  0  0  0  0  0  0  0  0  0  0  0
   54.0800   80.7120   26.7380 H   0  0  0  0  0  0  0  0  0  0  0  0
   52.1130   81.3530   25.6570 H   0  0  0  0  0  0  0  0  0  0  0  0
   49.9086   80.6829   23.9856 H   0  0  0  0  0  0  0  0  0  0  0  0
   49.2101   81.2014   21.6487 H   0  0  0  0  0  0  0  0  0  0  0  0
   50.9049   81.8746   19.9523 H   0  0  0  0  0  0  0  0  0  0  0  0
   53.3117   82.0244   20.5924 H   0  0  0  0  0  0  0  0  0  0  0  0
   54.0144   81.5091   22.9286 H   0  0  0  0  0  0  0  0  0  0  0  0
   56.0498   80.4599   26.4392 H   0  0  0  0  0  0  0  0  0  0  0  0
   58.2814   80.8914   27.4601 H   0  0  0  0  0  0  0  0  0  0  0  0
  1  2  1  0
  2  3  1  0
  3  4  1  0
  4  5  2  0
  5  6  1  0
  6  7  1  0
  7  8  2  0
  7  9  1  0
  9 10  1  0
 10 11  2  0
 10 12  1  0
 12 13  1  0
 13 14  2  0
 14 15  1  0
 15 16  2  0
 16 17  1  0
 17 18  2  0
  6 19  2  0
 19 20  1  0
 20  3  2  0
 18 13  1  0
  1 21  1  0
  1 22  1  0
  1 23  1  0
  4 24  1  0
  5 25  1  0
  9 26  1  0
 12 27  1  0
 14 28  1  0
 15 29  1  0
 16 30  1  0
 17 31  1  0
 18 32  1  0
 19 33  1  0
 20 34  1  0
M  END
>  <meeko>  (1) 
{"is_sidechain": false}

>  <smiles>  (1) 
COc1ccc(C(=O)NC(=O)Nc2ccccc2)cc1

>  <vina_score>  (1) 
-7.387

>  <job_id>  (1) 
53f0dd650e93a9aa

$$$$
