
     RDKit          3D

 44 46  0  0  0  0  0  0  0  0999 V2000
   58.3950   78.9630   28.0250 O   0  0  0  0  0  0  0  0  0  0  0  0
   57.7040   79.9820   28.0200 C   0  0  0  0  0  0  0  0  0  0  0  0
   56.6810   80.2320   26.9220 C   0  0  0  0  0  0  0  0  0  0  0  0
   55.3820   79.4680   27.0510 C   0  0  0  0  0  0  0  0  0  0  0  0
   55.1010   78.7270   28.2070 C   0  0  0  0  0  0  0  0  0  0  0  0
   53.9110   78.0070   28.3120 C   0  0  0  0  0  0  0  0  0  0  0  0
   52.9910   78.0220   27.2660 C   0  0  0  0  0  0  0  0  0  0  0  0
   53.2580   78.7580   26.1140 C   0  0  0  0  0  0  0  0  0  0  0  0
   54.4480   79.4800   26.0050 C   0  0  0  0  0  0  0  0  0  0  0  0
   57.8510   80.9840   28.9550 N   0  0  0  0  0  0  0  0  0  0  0  0
   58.8530   80.9250   30.0140 C   0  0  0  0  0  0  0  0  0  0  0  0
   58.2530   80.3340   31.3010 C   0  0  0  0  0  0  0  0  0  0  0  0
   58.8170   80.9820   32.5650 C   0  0  0  0  0  0  0  0  0  0  0  0
   60.2410   81.2480   32.3760 N   0  0  0  0  0  0  0  0  0  0  0  0
   61.1620   80.9490   33.3750 C   0  0  0  0  0  0  0  0  0  0  0  0
   60.8100   80.1780   34.4960 C   0  0  0  0  0  0  0  0  0  0  0  0
   61.7290   79.8580   35.5040 C   0  0  0  0  0  0  0  0  0  0  0  0
   63.0440   80.2950   35.4120 C   0  0  0  0  0  0  0  0  0  0  0  0
   63.4350   81.0390   34.3070 C   0  0  0  0  0  0  0  0  0  0  0  0
   62.5070   81.3520   33.3040 C   0  0  0  0  0  0  0  0  0  0  0  0
   60.5790   82.2100   31.3190 C   0  0  0  0  0  0  0  0  0  0  0  0
   59.4720   82.3000   30.2660 C   0  0  0  0  0  0  0  0  0  0  0  0
   56.4429   81.3059   26.9198 H   0  0  0  0  0  0  0  0  0  0  0  0
   57.1470   79.8771   25.9909 H   0  0  0  0  0  0  0  0  0  0  0  0
   55.8233   78.7132   29.0365 H   0  0  0  0  0  0  0  0  0  0  0  0
   53.6987   77.4266   29.2220 H   0  0  0  0  0  0  0  0  0  0  0  0
   52.0536   77.4525   27.3499 H   0  0  0  0  0  0  0  0  0  0  0  0
   52.5304   78.7704   25.2891 H   0  0  0  0  0  0  0  0  0  0  0  0
   54.6540   80.0612   25.0941 H   0  0  0  0  0  0  0  0  0  0  0  0
   57.3340   81.8450   28.8210 H   0  0  0  0  0  0  0  0  0  0  0  0
   59.6613   80.2567   29.6822 H   0  0  0  0  0  0  0  0  0  0  0  0
   57.1636   80.4856   31.2836 H   0  0  0  0  0  0  0  0  0  0  0  0
   58.5140   79.2658   31.3298 H   0  0  0  0  0  0  0  0  0  0  0  0
   58.2893   81.9271   32.7604 H   0  0  0  0  0  0  0  0  0  0  0  0
   58.6787   80.3041   33.4202 H   0  0  0  0  0  0  0  0  0  0  0  0
   59.7762   79.8128   34.5852 H   0  0  0  0  0  0  0  0  0  0  0  0
   61.4084   79.2597   36.3696 H   0  0  0  0  0  0  0  0  0  0  0  0
   63.7672   80.0545   36.2052 H   0  0  0  0  0  0  0  0  0  0  0  0
   64.4758   81.3838   34.2183 H   0  0  0  0  0  0  0  0  0  0  0  0
   62.8425   81.9325   32.4320 H   0  0  0  0  0  0  0  0  0  0  0  0
   60.7230   83.2022   31.7717 H   0  0  0  0  0  0  0  0  0  0  0  0
   61.4994   81.8679   30.8231 H   0  0  0  0  0  0  0  0  0  0  0  0
   58.6908   82.9881   30.6212 H   0  0  0  0  0  0  0  0  0  0  0  0
   59.9073   82.6696   29.3258 H   0  0  0  0  0  0  0  0  0  0  0  0
  1  2  2  0
  2  3  1  0
  3  4  1  0
  4  5  2  0
  5  6  1  0
  6  7  2  0
  7  8  1  0
  8  9  2  0
  2 10  1  0
 10 11  1  0
 11 12  1  0
 12 13  1  0
 13 14  1  0
 14 15  1  0
 15 16  2  0
 16 17  1  0
 17 18  2  0
 18 19  1  0
 19 20  2  0
 14 21  1  0
 21 22  1  0
  9  4  1  0
 22 11  1  0
 20 15  1  0
  3 23  1  0
  3 24  1  0
  5 25  1  0
  6 26  1  0
  7 27  1  0
  8 28  1  0
  9 29  1  0
 10 30  1  0
 11 31  1  0
 12 32  1  0
 12 33  1  0
 13 34  1  0
 13 35  1  0
 16 36  1  0
 17 37  1  0
 18 38  1  0
 19 39  1  0
 20 40  1  0
 21 41  1  0
 21 42  1  0
 22 43  1  0
 22 44  1  0
M  END
>  <meeko>  (1) 
{"is_sidechain": false}

>  <smiles>  (1) 
O=C(Cc1ccccc1)NC1CCN(c2ccccc2)CC1

>  <vina_score>  (1) 
-7.467

>  <job_id>  (1) 
53f9b5660e06a133

$$$$
