
     RDKit          3D

 53 56  0  0  0  0  0  0  0  0999 V2000
   52.9320   81.3460   23.0330 C   0  0  0  0  0  0  0  0  0  0  0  0
   52.6670   80.7850   24.4070 C   0  0  0  0  0  0  0  0  0  0  0  0
   51.5960   81.0120   24.9700 O   0  0  0  0  0  0  0  0  0  0  0  0
   53.6650   80.0180   24.9910 N   0  0  0  0  0  0  0  0  0  0  0  0
   53.9100   78.6090   24.6920 C   0  0  0  0  0  0  0  0  0  0  0  0
   53.2950   77.6900   25.7510 C   0  0  0  0  0  0  0  0  0  0  0  0
   53.3660   78.2540   27.1740 C   0  0  0  0  0  0  0  0  0  0  0  0
   54.7320   78.7490   27.5340 C   0  0  0  0  0  0  0  0  0  0  0  0
   55.5150   78.1050   28.4670 C   0  0  0  0  0  0  0  0  0  0  0  0
   56.7570   78.4950   28.8010 N   0  0  0  0  0  0  0  0  0  0  0  0
   57.2490   79.5780   28.1880 C   0  0  0  0  0  0  0  0  0  0  0  0
   58.5220   80.0690   28.4580 N   0  0  0  0  0  0  0  0  0  0  0  0
   59.1290   80.6350   29.5820 C   0  0  0  0  0  0  0  0  0  0  0  0
   60.0810   81.6510   29.5320 C   0  0  0  0  0  0  0  0  0  0  0  0
   60.6400   82.1910   30.7030 C   0  0  0  0  0  0  0  0  0  0  0  0
   60.2680   81.7370   31.9730 C   0  0  0  0  0  0  0  0  0  0  0  0
   60.8250   82.3170   33.1740 N   0  0  0  0  0  0  0  0  0  0  0  0
   60.0780   83.4090   33.8090 C   0  0  0  0  0  0  0  0  0  0  0  0
   60.9080   84.2880   34.7310 C   0  0  0  0  0  0  0  0  0  0  0  0
   61.6440   83.4130   35.7200 C   0  0  0  0  0  0  0  0  0  0  0  0
   62.5590   82.4840   34.9540 C   0  0  0  0  0  0  0  0  0  0  0  0
   61.8700   81.6810   33.8630 C   0  0  0  0  0  0  0  0  0  0  0  0
   62.3130   80.5590   33.6080 O   0  0  0  0  0  0  0  0  0  0  0  0
   59.2990   80.7270   32.0230 C   0  0  0  0  0  0  0  0  0  0  0  0
   58.7430   80.1880   30.8510 C   0  0  0  0  0  0  0  0  0  0  0  0
   56.5630   80.2700   27.2630 N   0  0  0  0  0  0  0  0  0  0  0  0
   55.3140   79.8560   26.9370 C   0  0  0  0  0  0  0  0  0  0  0  0
   54.5820   80.7070   25.9130 C   0  0  0  0  0  0  0  0  0  0  0  0
   53.4002   82.3371   23.1256 H   0  0  0  0  0  0  0  0  0  0  0  0
   53.6067   80.6715   22.4854 H   0  0  0  0  0  0  0  0  0  0  0  0
   51.9825   81.4387   22.4854 H   0  0  0  0  0  0  0  0  0  0  0  0
   53.4686   78.3703   23.7131 H   0  0  0  0  0  0  0  0  0  0  0  0
   54.9975   78.4441   24.6848 H   0  0  0  0  0  0  0  0  0  0  0  0
   52.2379   77.5248   25.4955 H   0  0  0  0  0  0  0  0  0  0  0  0
   53.8794   76.7581   25.7456 H   0  0  0  0  0  0  0  0  0  0  0  0
   52.6561   79.0902   27.2565 H   0  0  0  0  0  0  0  0  0  0  0  0
   53.1164   77.4370   27.8670 H   0  0  0  0  0  0  0  0  0  0  0  0
   55.0988   77.2188   28.9684 H   0  0  0  0  0  0  0  0  0  0  0  0
   59.0570   80.0620   27.6020 H   0  0  0  0  0  0  0  0  0  0  0  0
   60.4023   82.0392   28.5542 H   0  0  0  0  0  0  0  0  0  0  0  0
   61.3896   82.9916   30.6188 H   0  0  0  0  0  0  0  0  0  0  0  0
   59.6572   84.0442   33.0156 H   0  0  0  0  0  0  0  0  0  0  0  0
   59.3074   82.9374   34.4365 H   0  0  0  0  0  0  0  0  0  0  0  0
   61.6336   84.8629   34.1368 H   0  0  0  0  0  0  0  0  0  0  0  0
   60.2492   84.9839   35.2711 H   0  0  0  0  0  0  0  0  0  0  0  0
   62.2383   84.0411   36.4000 H   0  0  0  0  0  0  0  0  0  0  0  0
   60.9249   82.8283   36.3125 H   0  0  0  0  0  0  0  0  0  0  0  0
   63.3509   83.0887   34.4878 H   0  0  0  0  0  0  0  0  0  0  0  0
   62.9468   81.7558   35.6816 H   0  0  0  0  0  0  0  0  0  0  0  0
   58.9664   80.3479   33.0005 H   0  0  0  0  0  0  0  0  0  0  0  0
   57.9853   79.3948   30.9326 H   0  0  0  0  0  0  0  0  0  0  0  0
   53.9942   81.4550   26.4653 H   0  0  0  0  0  0  0  0  0  0  0  0
   55.3744   81.1154   25.2686 H   0  0  0  0  0  0  0  0  0  0  0  0
  1  2  1  0
  2  3  2  0
  2  4  1  0
  4  5  1  0
  5  6  1  0
  6  7  1  0
  7  8  1  0
  8  9  2  0
  9 10  1  0
 10 11  2  0
 11 12  1  0
 12 13  1  0
 13 14  1  0
 14 15  2  0
 15 16  1  0
 16 17  1  0
 17 18  1  0
 18 19  1  0
 19 20  1  0
 20 21  1  0
 21 22  1  0
 22 23  2  0
 16 24  2  0
 24 25  1  0
 11 26  1  0
 26 27  2  0
 27 28  1  0
 28  4  1  0
 27  8  1  0
 25 13  2  0
 22 17  1  0
  1 29  1  0
  1 30  1  0
  1 31  1  0
  5 32  1  0
  5 33  1  0
  6 34  1  0
  6 35  1  0
  7 36  1  0
  7 37  1  0
  9 38  1  0
 12 39  1  0
 14 40  1  0
 15 41  1  0
 18 42  1  0
 18 43  1  0
 19 44  1  0
 19 45  1  0
 20 46  1  0
 20 47  1  0
 21 48  1  0
 21 49  1  0
 24 50  1  0
 25 51  1  0
 28 52  1  0
 28 53  1  0
M  END
>  <meeko>  (1) 
{"is_sidechain": false}

>  <smiles>  (1) 
CC(=O)N1CCCc2cnc(Nc3ccc(N4CCCCC4=O)cc3)nc2C1

>  <vina_score>  (1) 
-7.048

>  <job_id>  (1) 
53fb1c1d2b737ee9

$$$$
