
     RDKit          3D

 40 43  0  0  0  0  0  0  0  0999 V2000
   51.0620   76.1070   28.5460 C   0  0  0  0  0  0  0  0  0  0  0  0
   51.9500   76.4010   27.3350 C   0  0  0  0  0  0  0  0  0  0  0  0
   52.1850   75.1260   26.5240 C   0  0  0  0  0  0  0  0  0  0  0  0
   53.2750   76.9720   27.7940 C   0  0  0  0  0  0  0  0  0  0  0  0
   53.9160   78.0900   27.3900 C   0  0  0  0  0  0  0  0  0  0  0  0
   53.3500   78.9770   26.3280 C   0  0  0  0  0  0  0  0  0  0  0  0
   53.9440   80.1290   25.9120 C   0  0  0  0  0  0  0  0  0  0  0  0
   53.3200   80.8310   24.8440 C   0  0  0  0  0  0  0  0  0  0  0  0
   52.6540   82.0370   24.7420 C   0  0  0  0  0  0  0  0  0  0  0  0
   52.2610   82.1960   23.3900 C   0  0  0  0  0  0  0  0  0  0  0  0
   52.6830   81.0790   22.7050 C   0  0  0  0  0  0  0  0  0  0  0  0
   53.3100   80.2480   23.5970 N   0  0  0  0  0  0  0  0  0  0  0  0
   55.1730   80.5210   26.5420 C   0  0  0  0  0  0  0  0  0  0  0  0
   55.9880   81.6220   26.4270 C   0  0  0  0  0  0  0  0  0  0  0  0
   55.9150   82.7440   25.7230 O   0  0  0  0  0  0  0  0  0  0  0  0
   57.0600   81.4180   27.2700 N   0  0  0  0  0  0  0  0  0  0  0  0
   56.9200   80.2330   27.9630 C   0  0  0  0  0  0  0  0  0  0  0  0
   57.7080   79.6100   28.9300 C   0  0  0  0  0  0  0  0  0  0  0  0
   57.2310   78.3890   29.4300 C   0  0  0  0  0  0  0  0  0  0  0  0
   56.0250   77.8280   28.9860 C   0  0  0  0  0  0  0  0  0  0  0  0
   55.6580   76.6580   29.5310 F   0  0  0  0  0  0  0  0  0  0  0  0
   55.2330   78.4550   28.0180 C   0  0  0  0  0  0  0  0  0  0  0  0
   55.7330   79.6710   27.5220 C   0  0  0  0  0  0  0  0  0  0  0  0
   51.6284   76.2945   29.4701 H   0  0  0  0  0  0  0  0  0  0  0  0
   50.1773   76.7602   28.5192 H   0  0  0  0  0  0  0  0  0  0  0  0
   50.7419   75.0549   28.5192 H   0  0  0  0  0  0  0  0  0  0  0  0
   51.4413   77.1369   26.6950 H   0  0  0  0  0  0  0  0  0  0  0  0
   52.3410   74.2794   27.2088 H   0  0  0  0  0  0  0  0  0  0  0  0
   51.3082   74.9279   25.8899 H   0  0  0  0  0  0  0  0  0  0  0  0
   53.0748   75.2535   25.8899 H   0  0  0  0  0  0  0  0  0  0  0  0
   53.7920   76.3903   28.5714 H   0  0  0  0  0  0  0  0  0  0  0  0
   52.4008   78.6824   25.8566 H   0  0  0  0  0  0  0  0  0  0  0  0
   52.4634   82.7454   25.5617 H   0  0  0  0  0  0  0  0  0  0  0  0
   51.7186   83.0539   22.9659 H   0  0  0  0  0  0  0  0  0  0  0  0
   52.5420   80.8870   21.6311 H   0  0  0  0  0  0  0  0  0  0  0  0
   53.7160   79.3460   23.3770 H   0  0  0  0  0  0  0  0  0  0  0  0
   55.9600   83.4840   26.3580 H   0  0  0  0  0  0  0  0  0  0  0  0
   57.8170   82.0750   27.3810 H   0  0  0  0  0  0  0  0  0  0  0  0
   58.6521   80.0517   29.2816 H   0  0  0  0  0  0  0  0  0  0  0  0
   57.8196   77.8568   30.1918 H   0  0  0  0  0  0  0  0  0  0  0  0
  1  2  1  0
  2  3  1  0
  2  4  1  0
  4  5  2  3
  5  6  1  0
  6  7  2  0
  7  8  1  0
  8  9  2  0
  9 10  1  0
 10 11  2  0
 11 12  1  0
  7 13  1  0
 13 14  2  0
 14 15  1  0
 14 16  1  0
 16 17  1  0
 17 18  2  0
 18 19  1  0
 19 20  2  0
 20 21  1  0
 20 22  1  0
 22 23  2  0
 22  5  1  0
 12  8  1  0
 23 13  1  0
 23 17  1  0
  1 24  1  0
  1 25  1  0
  1 26  1  0
  2 27  1  0
  3 28  1  0
  3 29  1  0
  3 30  1  0
  4 31  1  0
  6 32  1  0
  9 33  1  0
 10 34  1  0
 11 35  1  0
 12 36  1  0
 15 37  1  0
 16 38  1  0
 18 39  1  0
 19 40  1  0
M  END
>  <meeko>  (1) 
{"is_sidechain": false}

>  <smiles>  (1) 
CC(C)C=c1cc(-c2ccc[nH]2)c2c(O)[nH]c3ccc(F)c1c32

>  <vina_score>  (1) 
-9.169

>  <job_id>  (1) 
54b8bc2d1d2a088e

$$$$
