
     RDKit          3D

 46 48  0  0  0  0  0  0  0  0999 V2000
   58.6080   79.9340   30.6830 C   0  0  0  0  0  0  0  0  0  0  0  0
   58.9760   80.9530   29.7650 O   0  0  0  0  0  0  0  0  0  0  0  0
   58.2970   80.8630   28.5100 C   0  0  0  0  0  0  0  0  0  0  0  0
   57.6310   79.4990   28.3280 C   0  0  0  0  0  0  0  0  0  0  0  0
   56.3040   79.6230   27.6290 C   0  0  0  0  0  0  0  0  0  0  0  0
   56.3200   80.6470   26.7380 N   0  0  0  0  0  0  0  0  0  0  0  0
   55.2470   80.9110   25.9650 N   0  0  0  0  0  0  0  0  0  0  0  0
   54.1370   80.1560   26.0610 C   0  0  0  0  0  0  0  0  0  0  0  0
   53.0400   80.4350   25.1850 N   0  0  0  0  0  0  0  0  0  0  0  0
   53.4510   80.0690   23.8190 C   0  0  0  0  0  0  0  0  0  0  0  0
   52.3800   80.3770   22.7760 C   0  0  0  0  0  0  0  0  0  0  0  0
   52.5080   81.7980   22.2270 C   0  0  0  0  0  0  0  0  0  0  0  0
   52.1320   82.8560   23.1580 N   0  0  0  0  0  0  0  0  0  0  0  0
   52.9410   82.8670   24.3880 C   0  0  0  0  0  0  0  0  0  0  0  0
   52.5240   81.8000   25.4190 C   0  0  0  0  0  0  0  0  0  0  0  0
   54.0580   79.0830   26.9790 C   0  0  0  0  0  0  0  0  0  0  0  0
   52.8680   78.3260   27.0830 C   0  0  0  0  0  0  0  0  0  0  0  0
   52.7390   77.2640   27.9640 C   0  0  0  0  0  0  0  0  0  0  0  0
   53.8060   76.9340   28.7770 C   0  0  0  0  0  0  0  0  0  0  0  0
   55.0150   77.6590   28.7230 C   0  0  0  0  0  0  0  0  0  0  0  0
   56.0700   77.2000   29.6970 C   0  0  0  0  0  0  0  0  0  0  0  0
   55.1720   78.7740   27.8120 C   0  0  0  0  0  0  0  0  0  0  0  0
   58.7407   80.3015   31.7113 H   0  0  0  0  0  0  0  0  0  0  0  0
   57.5544   79.6607   30.5244 H   0  0  0  0  0  0  0  0  0  0  0  0
   59.2439   79.0505   30.5244 H   0  0  0  0  0  0  0  0  0  0  0  0
   57.5257   81.6460   28.4643 H   0  0  0  0  0  0  0  0  0  0  0  0
   59.0377   80.9945   27.7074 H   0  0  0  0  0  0  0  0  0  0  0  0
   58.2920   78.8554   27.7289 H   0  0  0  0  0  0  0  0  0  0  0  0
   57.4579   79.0635   29.3232 H   0  0  0  0  0  0  0  0  0  0  0  0
   54.3618   80.6305   23.5638 H   0  0  0  0  0  0  0  0  0  0  0  0
   53.6237   78.9827   23.8052 H   0  0  0  0  0  0  0  0  0  0  0  0
   52.4791   79.6644   21.9439 H   0  0  0  0  0  0  0  0  0  0  0  0
   51.3969   80.2873   23.2613 H   0  0  0  0  0  0  0  0  0  0  0  0
   53.5564   81.9575   21.9349 H   0  0  0  0  0  0  0  0  0  0  0  0
   51.8040   81.8661   21.3846 H   0  0  0  0  0  0  0  0  0  0  0  0
   51.1480   82.7550   23.4040 H   0  0  0  0  0  0  0  0  0  0  0  0
   53.9915   82.6913   24.1132 H   0  0  0  0  0  0  0  0  0  0  0  0
   52.7871   83.8473   24.8628 H   0  0  0  0  0  0  0  0  0  0  0  0
   52.8796   82.1293   26.4065 H   0  0  0  0  0  0  0  0  0  0  0  0
   51.4299   81.7210   25.3373 H   0  0  0  0  0  0  0  0  0  0  0  0
   52.0141   78.5896   26.4416 H   0  0  0  0  0  0  0  0  0  0  0  0
   51.8007   76.6922   28.0152 H   0  0  0  0  0  0  0  0  0  0  0  0
   53.7113   76.0918   29.4782 H   0  0  0  0  0  0  0  0  0  0  0  0
   55.7122   77.3557   30.7254 H   0  0  0  0  0  0  0  0  0  0  0  0
   56.2755   76.1311   29.5381 H   0  0  0  0  0  0  0  0  0  0  0  0
   56.9922   77.7783   29.5381 H   0  0  0  0  0  0  0  0  0  0  0  0
  1  2  1  0
  2  3  1  0
  3  4  1  0
  4  5  1  0
  5  6  1  0
  6  7  2  0
  7  8  1  0
  8  9  1  0
  9 10  1  0
 10 11  1  0
 11 12  1  0
 12 13  1  0
 13 14  1  0
 14 15  1  0
  8 16  2  0
 16 17  1  0
 17 18  2  0
 18 19  1  0
 19 20  2  0
 20 21  1  0
 20 22  1  0
 22  5  2  0
 15  9  1  0
 22 16  1  0
  1 23  1  0
  1 24  1  0
  1 25  1  0
  3 26  1  0
  3 27  1  0
  4 28  1  0
  4 29  1  0
 10 30  1  0
 10 31  1  0
 11 32  1  0
 11 33  1  0
 12 34  1  0
 12 35  1  0
 13 36  1  0
 14 37  1  0
 14 38  1  0
 15 39  1  0
 15 40  1  0
 17 41  1  0
 18 42  1  0
 19 43  1  0
 21 44  1  0
 21 45  1  0
 21 46  1  0
M  END
>  <meeko>  (1) 
{"is_sidechain": false}

>  <smiles>  (1) 
COCCc1nnc(N2CCCNCC2)c2cccc(C)c12

>  <vina_score>  (1) 
-6.146

>  <job_id>  (1) 
550143f0e7e1729c

$$$$
