
     RDKit          3D

 44 45  0  0  0  0  0  0  0  0999 V2000
   53.6850   83.9850   25.7700 C   0  0  0  0  0  0  0  0  0  0  0  0
   53.5120   82.5980   25.3600 N   0  0  0  0  0  0  0  0  0  0  0  0
   54.7280   81.7940   25.5570 C   0  0  0  0  0  0  0  0  0  0  0  0
   55.7740   82.6600   26.2690 C   0  0  0  0  0  0  0  0  0  0  0  0
   54.4700   80.5020   26.3200 C   0  0  0  0  0  0  0  0  0  0  0  0
   53.2070   79.8970   26.2540 C   0  0  0  0  0  0  0  0  0  0  0  0
   52.9440   78.7180   26.9500 C   0  0  0  0  0  0  0  0  0  0  0  0
   53.9410   78.1250   27.7250 C   0  0  0  0  0  0  0  0  0  0  0  0
   55.2130   78.7070   27.8170 C   0  0  0  0  0  0  0  0  0  0  0  0
   56.3160   78.0740   28.6570 C   0  0  0  0  0  0  0  0  0  0  0  0
   55.7030   77.1240   29.6990 C   0  0  0  0  0  0  0  0  0  0  0  0
   57.2960   79.1070   29.2130 C   0  0  0  0  0  0  0  0  0  0  0  0
   58.1930   79.8230   28.4040 C   0  0  0  0  0  0  0  0  0  0  0  0
   59.0810   80.7480   28.9620 C   0  0  0  0  0  0  0  0  0  0  0  0
   59.0740   80.9630   30.3400 C   0  0  0  0  0  0  0  0  0  0  0  0
   60.2020   82.1270   31.0590 S   0  0  0  0  0  0  0  0  0  0  0  0
   61.6380   81.7320   30.2700 N   0  0  0  0  0  0  0  0  0  0  0  0
   59.8190   83.4550   30.6460 O   0  0  0  0  0  0  0  0  0  0  0  0
   60.4130   81.7700   32.4430 O   0  0  0  0  0  0  0  0  0  0  0  0
   58.2060   80.2520   31.1680 C   0  0  0  0  0  0  0  0  0  0  0  0
   57.3220   79.3330   30.6040 C   0  0  0  0  0  0  0  0  0  0  0  0
   55.4640   79.8940   27.1080 C   0  0  0  0  0  0  0  0  0  0  0  0
   53.6924   84.0445   26.8684 H   0  0  0  0  0  0  0  0  0  0  0  0
   54.6379   84.3678   25.3756 H   0  0  0  0  0  0  0  0  0  0  0  0
   52.8554   84.5901   25.3756 H   0  0  0  0  0  0  0  0  0  0  0  0
   53.2400   82.5650   24.3800 H   0  0  0  0  0  0  0  0  0  0  0  0
   55.1005   81.4822   24.5701 H   0  0  0  0  0  0  0  0  0  0  0  0
   55.6532   82.5600   27.3578 H   0  0  0  0  0  0  0  0  0  0  0  0
   56.7824   82.3288   25.9800 H   0  0  0  0  0  0  0  0  0  0  0  0
   55.6368   83.7125   25.9800 H   0  0  0  0  0  0  0  0  0  0  0  0
   52.4145   80.3578   25.6461 H   0  0  0  0  0  0  0  0  0  0  0  0
   51.9484   78.2544   26.8880 H   0  0  0  0  0  0  0  0  0  0  0  0
   53.7272   77.1928   28.2685 H   0  0  0  0  0  0  0  0  0  0  0  0
   56.9506   77.4500   28.0105 H   0  0  0  0  0  0  0  0  0  0  0  0
   55.9379   77.4880   30.7101 H   0  0  0  0  0  0  0  0  0  0  0  0
   54.6116   77.0891   29.5662 H   0  0  0  0  0  0  0  0  0  0  0  0
   56.1209   76.1152   29.5662 H   0  0  0  0  0  0  0  0  0  0  0  0
   58.1972   79.6541   27.3171 H   0  0  0  0  0  0  0  0  0  0  0  0
   59.7802   81.3022   28.3186 H   0  0  0  0  0  0  0  0  0  0  0  0
   61.5710   82.0350   29.2960 H   0  0  0  0  0  0  0  0  0  0  0  0
   62.4650   82.1090   30.7300 H   0  0  0  0  0  0  0  0  0  0  0  0
   58.2186   80.4146   32.2558 H   0  0  0  0  0  0  0  0  0  0  0  0
   56.6334   78.7750   31.2555 H   0  0  0  0  0  0  0  0  0  0  0  0
   56.4595   80.3578   27.1706 H   0  0  0  0  0  0  0  0  0  0  0  0
  1  2  1  0
  2  3  1  0
  3  4  1  0
  3  5  1  0
  5  6  2  0
  6  7  1  0
  7  8  2  0
  8  9  1  0
  9 10  1  0
 10 11  1  0
 10 12  1  0
 12 13  1  0
 13 14  2  0
 14 15  1  0
 15 16  1  0
 16 17  1  0
 16 18  2  0
 16 19  2  0
 15 20  2  0
 20 21  1  0
  9 22  2  0
 22  5  1  0
 21 12  2  0
  1 23  1  0
  1 24  1  0
  1 25  1  0
  2 26  1  0
  3 27  1  0
  4 28  1  0
  4 29  1  0
  4 30  1  0
  6 31  1  0
  7 32  1  0
  8 33  1  0
 10 34  1  0
 11 35  1  0
 11 36  1  0
 11 37  1  0
 13 38  1  0
 14 39  1  0
 17 40  1  0
 17 41  1  0
 20 42  1  0
 21 43  1  0
 22 44  1  0
M  END
>  <meeko>  (1) 
{"is_sidechain": false}

>  <smiles>  (1) 
CNC(C)c1cccc(C(C)c2ccc(S(N)(=O)=O)cc2)c1

>  <vina_score>  (1) 
-8.275

>  <job_id>  (1) 
5518fbc2791f343b

$$$$
