
     RDKit          3D

 42 45  0  0  0  0  0  0  0  0999 V2000
   53.1150   79.5730   24.0920 C   0  0  0  0  0  0  0  0  0  0  0  0
   53.9280   80.1080   25.0100 C   0  0  0  0  0  0  0  0  0  0  0  0
   54.5140   81.3580   24.8790 N   0  0  0  0  0  0  0  0  0  0  0  0
   55.5070   81.5070   25.8170 C   0  0  0  0  0  0  0  0  0  0  0  0
   56.3100   82.6030   25.7870 O   0  0  0  0  0  0  0  0  0  0  0  0
   55.5660   80.4870   26.7030 C   0  0  0  0  0  0  0  0  0  0  0  0
   56.4060   80.2860   27.7740 N   0  0  0  0  0  0  0  0  0  0  0  0
   57.7950   79.8550   27.6700 C   0  0  0  0  0  0  0  0  0  0  0  0
   58.3390   79.4830   29.0540 C   0  0  0  0  0  0  0  0  0  0  0  0
   59.1010   80.6010   29.6930 C   0  0  0  0  0  0  0  0  0  0  0  0
   60.0600   81.3910   29.0900 C   0  0  0  0  0  0  0  0  0  0  0  0
   60.5150   82.2950   30.0120 N   0  0  0  0  0  0  0  0  0  0  0  0
   59.8720   82.1140   31.2140 C   0  0  0  0  0  0  0  0  0  0  0  0
   60.0150   82.8010   32.4260 C   0  0  0  0  0  0  0  0  0  0  0  0
   59.2160   82.3940   33.5000 C   0  0  0  0  0  0  0  0  0  0  0  0
   58.3140   81.3430   33.3630 C   0  0  0  0  0  0  0  0  0  0  0  0
   58.1850   80.6670   32.1440 C   0  0  0  0  0  0  0  0  0  0  0  0
   58.9780   81.0560   31.0460 C   0  0  0  0  0  0  0  0  0  0  0  0
   54.4890   79.5340   26.2710 C   0  0  0  0  0  0  0  0  0  0  0  0
   54.0790   78.4120   26.9110 C   0  0  0  0  0  0  0  0  0  0  0  0
   52.9350   77.5170   26.5060 C   0  0  0  0  0  0  0  0  0  0  0  0
   52.6570   76.5010   27.5500 N   0  0  0  0  0  0  0  0  0  0  0  0
   53.5180   76.5820   28.5050 C   0  0  0  0  0  0  0  0  0  0  0  0
   54.7590   77.7960   28.3960 S   0  0  0  0  0  0  0  0  0  0  0  0
   52.6815   78.5754   24.2558 H   0  0  0  0  0  0  0  0  0  0  0  0
   52.8801   80.1307   23.1735 H   0  0  0  0  0  0  0  0  0  0  0  0
   54.6930   81.6900   23.9410 H   0  0  0  0  0  0  0  0  0  0  0  0
   57.0510   82.3540   25.2150 H   0  0  0  0  0  0  0  0  0  0  0  0
   55.9070   79.9540   28.5950 H   0  0  0  0  0  0  0  0  0  0  0  0
   57.8548   78.9782   27.0084 H   0  0  0  0  0  0  0  0  0  0  0  0
   58.3964   80.6785   27.2575 H   0  0  0  0  0  0  0  0  0  0  0  0
   57.4933   79.2161   29.7048 H   0  0  0  0  0  0  0  0  0  0  0  0
   59.0327   78.6394   28.9233 H   0  0  0  0  0  0  0  0  0  0  0  0
   60.4001   81.3081   28.0472 H   0  0  0  0  0  0  0  0  0  0  0  0
   61.2210   82.9970   29.8410 H   0  0  0  0  0  0  0  0  0  0  0  0
   60.7297   83.6307   32.5298 H   0  0  0  0  0  0  0  0  0  0  0  0
   59.3020   82.9121   34.4665 H   0  0  0  0  0  0  0  0  0  0  0  0
   57.6962   81.0404   34.2213 H   0  0  0  0  0  0  0  0  0  0  0  0
   57.4694   79.8376   32.0439 H   0  0  0  0  0  0  0  0  0  0  0  0
   52.0351   78.1309   26.3534 H   0  0  0  0  0  0  0  0  0  0  0  0
   53.2102   76.9969   25.5766 H   0  0  0  0  0  0  0  0  0  0  0  0
   53.4696   75.9008   29.3673 H   0  0  0  0  0  0  0  0  0  0  0  0
  1  2  2  0
  2  3  1  0
  3  4  1  0
  4  5  1  0
  4  6  2  0
  6  7  1  0
  7  8  1  0
  8  9  1  0
  9 10  1  0
 10 11  2  0
 11 12  1  0
 12 13  1  0
 13 14  2  0
 14 15  1  0
 15 16  2  0
 16 17  1  0
 17 18  2  0
  6 19  1  0
 19 20  2  3
 20 21  1  0
 21 22  1  0
 22 23  2  0
 23 24  1  0
 19  2  1  0
 24 20  1  0
 18 10  1  0
 18 13  1  0
  1 25  1  0
  1 26  1  0
  3 27  1  0
  5 28  1  0
  7 29  1  0
  8 30  1  0
  8 31  1  0
  9 32  1  0
  9 33  1  0
 11 34  1  0
 12 35  1  0
 14 36  1  0
 15 37  1  0
 16 38  1  0
 17 39  1  0
 21 40  1  0
 21 41  1  0
 23 42  1  0
M  END
>  <meeko>  (1) 
{"is_sidechain": false}

>  <smiles>  (1) 
C=c1[nH]c(O)c(NCCc2c[nH]c3ccccc23)c1=C1CN=CS1

>  <vina_score>  (1) 
-7.834

>  <job_id>  (1) 
55a132184ce4c3c2

$$$$
