
     RDKit          3D

 45 47  0  0  0  0  0  0  0  0999 V2000
   61.1780   82.5450   30.6450 C   0  0  0  0  0  0  0  0  0  0  0  0
   62.2240   82.6870   31.5970 O   0  0  0  0  0  0  0  0  0  0  0  0
   62.6700   84.0330   31.8790 C   0  0  1  0  0  0  0  0  0  0  0  0
   61.5390   84.8850   32.4690 C   0  0  0  0  0  0  0  0  0  0  0  0
   63.7640   83.8330   32.9300 C   0  0  0  0  0  0  0  0  0  0  0  0
   63.6980   84.2760   34.0810 O   0  0  0  0  0  0  0  0  0  0  0  0
   64.9660   82.9800   32.4970 C   0  0  0  0  0  0  0  0  0  0  0  0
   66.0600   83.2330   33.3740 O   0  0  0  0  0  0  0  0  0  0  0  0
   65.3960   83.2790   31.0850 C   0  0  0  0  0  0  0  0  0  0  0  0
   66.6770   82.6190   30.6450 C   0  0  0  0  0  0  0  0  0  0  0  0
   64.6720   84.0790   30.2760 C   0  0  0  0  0  0  0  0  0  0  0  0
   65.0840   84.3570   28.9650 O   0  0  0  0  0  0  0  0  0  0  0  0
   65.6160   85.6140   28.9210 C   0  0  0  0  0  0  0  0  0  0  0  0
   66.8090   85.8570   28.8430 O   0  0  0  0  0  0  0  0  0  0  0  0
   64.5600   86.6350   28.7300 C   0  0  0  0  0  0  0  0  0  0  0  0
   64.5700   87.4300   27.5660 C   0  0  0  0  0  0  0  0  0  0  0  0
   65.5960   87.2450   26.4800 C   0  0  0  0  0  0  0  0  0  0  0  0
   63.6120   88.4450   27.4350 C   0  0  0  0  0  0  0  0  0  0  0  0
   62.6740   88.6660   28.4450 C   0  0  0  0  0  0  0  0  0  0  0  0
   61.7420   89.6540   28.2970 O   0  0  0  0  0  0  0  0  0  0  0  0
   62.6630   87.8970   29.6140 C   0  0  0  0  0  0  0  0  0  0  0  0
   61.6490   88.1550   30.6950 C   0  0  0  0  0  0  0  0  0  0  0  0
   63.5930   86.8490   29.7310 C   0  0  0  0  0  0  0  0  0  0  0  0
   63.5570   86.1050   30.8900 O   0  0  0  0  0  0  0  0  0  0  0  0
   63.3430   84.7010   30.6460 C   0  0  2  0  0  0  0  0  0  0  0  0
   60.2199   82.4149   31.1696 H   0  0  0  0  0  0  0  0  0  0  0  0
   61.1315   83.4451   30.0144 H   0  0  0  0  0  0  0  0  0  0  0  0
   61.3731   81.6651   30.0144 H   0  0  0  0  0  0  0  0  0  0  0  0
   61.5873   84.8486   33.5673 H   0  0  0  0  0  0  0  0  0  0  0  0
   61.6498   85.9260   32.1314 H   0  0  0  0  0  0  0  0  0  0  0  0
   60.5690   84.4913   32.1314 H   0  0  0  0  0  0  0  0  0  0  0  0
   64.6590   81.9247   32.5425 H   0  0  0  0  0  0  0  0  0  0  0  0
   66.0610   84.1990   33.5310 H   0  0  0  0  0  0  0  0  0  0  0  0
   67.2580   82.3197   31.5298 H   0  0  0  0  0  0  0  0  0  0  0  0
   66.4428   81.7293   30.0420 H   0  0  0  0  0  0  0  0  0  0  0  0
   67.2655   83.3261   30.0420 H   0  0  0  0  0  0  0  0  0  0  0  0
   66.5822   87.0672   26.9337 H   0  0  0  0  0  0  0  0  0  0  0  0
   65.3184   86.3824   25.8564 H   0  0  0  0  0  0  0  0  0  0  0  0
   65.6371   88.1502   25.8564 H   0  0  0  0  0  0  0  0  0  0  0  0
   63.5993   89.0712   26.5307 H   0  0  0  0  0  0  0  0  0  0  0  0
   62.1890   90.5140   28.2400 H   0  0  0  0  0  0  0  0  0  0  0  0
   62.1240   88.0341   31.6797 H   0  0  0  0  0  0  0  0  0  0  0  0
   61.2622   89.1802   30.5978 H   0  0  0  0  0  0  0  0  0  0  0  0
   60.8193   87.4393   30.5978 H   0  0  0  0  0  0  0  0  0  0  0  0
   62.6486   84.5446   29.8073 H   0  0  0  0  0  0  0  0  0  0  0  0
  1  2  1  0
  3  2  1  6
  3  4  1  0
  3  5  1  0
  5  6  2  0
  5  7  1  0
  7  8  1  0
  7  9  1  0
  9 10  1  0
  9 11  2  0
 11 12  1  0
 12 13  1  0
 13 14  2  0
 13 15  1  0
 15 16  2  0
 16 17  1  0
 16 18  1  0
 18 19  2  0
 19 20  1  0
 19 21  1  0
 21 22  1  0
 21 23  2  0
 23 24  1  0
 24 25  1  0
 25  3  1  0
 25 11  1  0
 23 15  1  0
  1 26  1  0
  1 27  1  0
  1 28  1  0
  4 29  1  0
  4 30  1  0
  4 31  1  0
  7 32  1  0
  8 33  1  0
 10 34  1  0
 10 35  1  0
 10 36  1  0
 17 37  1  0
 17 38  1  0
 17 39  1  0
 18 40  1  0
 20 41  1  0
 22 42  1  0
 22 43  1  0
 22 44  1  0
 25 45  1  6
M  END
>  <meeko>  (1) 
{"is_sidechain": false}

>  <smiles>  (1) 
CO[C@@]1(C)C(=O)C(O)C(C)=C2OC(=O)c3c(C)cc(O)c(C)c3O[C@@H]21

>  <vina_score>  (1) 
-5.507

>  <job_id>  (1) 
55ad481ca5c4bcd3

$$$$
