
     RDKit          3D

 54 57  0  0  0  0  0  0  0  0999 V2000
   62.2280   82.4490   31.7010 C   0  0  0  0  0  0  0  0  0  0  0  0
   61.2750   82.7930   30.7020 O   0  0  0  0  0  0  0  0  0  0  0  0
   60.2630   81.9010   30.4820 C   0  0  0  0  0  0  0  0  0  0  0  0
   59.9150   81.7290   29.1420 C   0  0  0  0  0  0  0  0  0  0  0  0
   58.8940   80.8470   28.7700 C   0  0  0  0  0  0  0  0  0  0  0  0
   58.1980   80.1160   29.7400 C   0  0  0  0  0  0  0  0  0  0  0  0
   57.1160   79.1780   29.4070 C   0  0  0  0  0  0  0  0  0  0  0  0
   56.2250   79.3410   28.4380 N   0  0  0  0  0  0  0  0  0  0  0  0
   55.4110   78.2310   28.4830 C   0  0  0  0  0  0  0  0  0  0  0  0
   54.3060   77.8730   27.6790 C   0  0  0  0  0  0  0  0  0  0  0  0
   53.8690   78.7270   26.6330 N   0  0  0  0  0  0  0  0  0  0  0  0
   53.0750   79.8600   27.1350 C   0  0  0  0  0  0  0  0  0  0  0  0
   53.6080   81.1690   26.5560 C   0  0  0  0  0  0  0  0  0  0  0  0
   54.4210   80.9570   25.2820 C   0  0  0  0  0  0  0  0  0  0  0  0
   53.6160   81.1690   24.0940 N   0  0  0  0  0  0  0  0  0  0  0  0
   52.9230   80.1400   23.4860 C   0  0  0  0  0  0  0  0  0  0  0  0
   52.9910   78.9800   23.8970 O   0  0  0  0  0  0  0  0  0  0  0  0
   52.0650   80.5860   22.2690 C   0  0  0  0  0  0  0  0  0  0  0  0
   52.6360   81.7300   21.3920 C   0  0  0  0  0  0  0  0  0  0  0  0
   51.2020   82.2860   21.2690 C   0  0  0  0  0  0  0  0  0  0  0  0
   51.0600   83.7150   21.3160 O   0  0  0  0  0  0  0  0  0  0  0  0
   50.8610   81.5170   22.5620 C   0  0  0  0  0  0  0  0  0  0  0  0
   53.6920   76.6510   28.0200 C   0  0  0  0  0  0  0  0  0  0  0  0
   52.1130   76.0330   27.1620 Br  0  0  0  0  0  0  0  0  0  0  0  0
   54.2080   75.8820   29.0680 C   0  0  0  0  0  0  0  0  0  0  0  0
   55.2850   76.1900   29.8390 N   0  0  0  0  0  0  0  0  0  0  0  0
   55.8170   77.3720   29.4890 C   0  0  0  0  0  0  0  0  0  0  0  0
   56.8900   77.9850   30.0610 N   0  0  0  0  0  0  0  0  0  0  0  0
   58.5570   80.2930   31.0850 C   0  0  0  0  0  0  0  0  0  0  0  0
   59.5790   81.1760   31.4550 C   0  0  0  0  0  0  0  0  0  0  0  0
   61.7887   82.6076   32.6969 H   0  0  0  0  0  0  0  0  0  0  0  0
   62.5111   81.3919   31.5892 H   0  0  0  0  0  0  0  0  0  0  0  0
   63.1210   83.0815   31.5892 H   0  0  0  0  0  0  0  0  0  0  0  0
   60.4512   82.2951   28.3661 H   0  0  0  0  0  0  0  0  0  0  0  0
   58.6365   80.7273   27.7073 H   0  0  0  0  0  0  0  0  0  0  0  0
   53.2460   78.1450   26.0600 H   0  0  0  0  0  0  0  0  0  0  0  0
   52.0247   79.7300   26.8350 H   0  0  0  0  0  0  0  0  0  0  0  0
   53.1483   79.8942   28.2320 H   0  0  0  0  0  0  0  0  0  0  0  0
   52.7560   81.8254   26.3255 H   0  0  0  0  0  0  0  0  0  0  0  0
   54.2744   81.6193   27.3064 H   0  0  0  0  0  0  0  0  0  0  0  0
   55.2630   81.6648   25.2738 H   0  0  0  0  0  0  0  0  0  0  0  0
   54.7816   79.9178   25.2726 H   0  0  0  0  0  0  0  0  0  0  0  0
   53.4770   82.1190   23.7770 H   0  0  0  0  0  0  0  0  0  0  0  0
   51.9262   79.5681   21.8757 H   0  0  0  0  0  0  0  0  0  0  0  0
   53.3401   82.3957   21.9126 H   0  0  0  0  0  0  0  0  0  0  0  0
   53.2464   81.5186   20.5016 H   0  0  0  0  0  0  0  0  0  0  0  0
   50.6125   82.1548   20.3496 H   0  0  0  0  0  0  0  0  0  0  0  0
   51.2050   84.0240   20.4050 H   0  0  0  0  0  0  0  0  0  0  0  0
   50.9567   82.1097   23.4837 H   0  0  0  0  0  0  0  0  0  0  0  0
   49.8537   81.1115   22.7378 H   0  0  0  0  0  0  0  0  0  0  0  0
   53.6925   74.9360   29.2902 H   0  0  0  0  0  0  0  0  0  0  0  0
   57.4210   77.6050   30.8270 H   0  0  0  0  0  0  0  0  0  0  0  0
   58.0252   79.7270   31.8640 H   0  0  0  0  0  0  0  0  0  0  0  0
   59.8421   81.2973   32.5162 H   0  0  0  0  0  0  0  0  0  0  0  0
  1  2  1  0
  2  3  1  0
  3  4  1  0
  4  5  2  0
  5  6  1  0
  6  7  1  0
  7  8  2  0
  8  9  1  0
  9 10  2  0
 10 11  1  0
 11 12  1  0
 12 13  1  0
 13 14  1  0
 14 15  1  0
 15 16  1  0
 16 17  2  0
 16 18  1  0
 18 19  1  0
 19 20  1  0
 20 21  1  0
 20 22  1  0
 10 23  1  0
 23 24  1  0
 23 25  2  0
 25 26  1  0
 26 27  2  0
 27 28  1  0
  6 29  2  0
 29 30  1  0
 30  3  2  0
 28  7  1  0
 27  9  1  0
 22 18  1  0
  1 31  1  0
  1 32  1  0
  1 33  1  0
  4 34  1  0
  5 35  1  0
 11 36  1  0
 12 37  1  0
 12 38  1  0
 13 39  1  0
 13 40  1  0
 14 41  1  0
 14 42  1  0
 15 43  1  0
 18 44  1  0
 19 45  1  0
 19 46  1  0
 20 47  1  0
 21 48  1  0
 22 49  1  0
 22 50  1  0
 25 51  1  0
 28 52  1  0
 29 53  1  0
 30 54  1  0
M  END
>  <meeko>  (1) 
{"is_sidechain": false}

>  <smiles>  (1) 
COc1ccc(-c2nc3c(NCCCNC(=O)C4CC(O)C4)c(Br)cnc3[nH]2)cc1

>  <vina_score>  (1) 
-8.287

>  <job_id>  (1) 
56c00ea2ba827017

$$$$
