
     RDKit          3D

 52 55  0  0  0  0  0  0  0  0999 V2000
   55.2000   83.6130   26.9040 C   0  0  0  0  0  0  0  0  0  0  0  0
   54.2980   84.0590   25.7640 C   0  0  0  0  0  0  0  0  0  0  0  0
   52.9280   83.3780   25.7680 C   0  0  0  0  0  0  0  0  0  0  0  0
   52.8500   82.1990   24.9240 N   0  0  0  0  0  0  0  0  0  0  0  0
   52.3460   82.1500   23.6410 C   0  0  0  0  0  0  0  0  0  0  0  0
   51.8100   83.3260   22.9080 C   0  0  0  0  0  0  0  0  0  0  0  0
   52.4050   80.9250   23.1640 N   0  0  0  0  0  0  0  0  0  0  0  0
   52.9380   80.1490   24.1650 C   0  0  0  0  0  0  0  0  0  0  0  0
   53.2110   78.7750   24.2110 C   0  0  0  0  0  0  0  0  0  0  0  0
   52.9550   77.9810   23.1610 F   0  0  0  0  0  0  0  0  0  0  0  0
   53.7630   78.2140   25.3670 C   0  0  0  0  0  0  0  0  0  0  0  0
   54.0640   78.9920   26.5010 C   0  0  0  0  0  0  0  0  0  0  0  0
   54.6560   78.3570   27.7000 C   0  0  0  0  0  0  0  0  0  0  0  0
   55.9030   78.7870   28.0220 N   0  0  0  0  0  0  0  0  0  0  0  0
   56.5020   78.2590   29.0990 C   0  0  0  0  0  0  0  0  0  0  0  0
   57.7750   78.6540   29.4610 N   0  0  0  0  0  0  0  0  0  0  0  0
   57.9790   80.0640   29.7800 C   0  0  1  0  0  0  0  0  0  0  0  0
   58.5120   80.2320   31.2160 C   0  0  0  0  0  0  0  0  0  0  0  0
   59.4760   81.4110   31.3600 C   0  0  0  0  0  0  0  0  0  0  0  0
   59.1550   82.5280   30.3750 C   0  0  0  0  0  0  0  0  0  0  0  0
   59.2490   82.1070   28.9790 N   0  0  0  0  0  0  0  0  0  0  0  0
   58.9730   80.6800   28.7680 C   0  0  0  0  0  0  0  0  0  0  0  0
   55.9350   77.3420   29.8930 N   0  0  0  0  0  0  0  0  0  0  0  0
   54.6960   76.9330   29.5560 C   0  0  0  0  0  0  0  0  0  0  0  0
   54.0100   77.4080   28.4670 C   0  0  0  0  0  0  0  0  0  0  0  0
   52.7710   76.9700   28.2060 F   0  0  0  0  0  0  0  0  0  0  0  0
   53.7750   80.3750   26.4590 C   0  0  0  0  0  0  0  0  0  0  0  0
   53.2230   80.9220   25.2870 C   0  0  0  0  0  0  0  0  0  0  0  0
   54.7205   83.8501   27.8652 H   0  0  0  0  0  0  0  0  0  0  0  0
   55.3679   82.5280   26.8357 H   0  0  0  0  0  0  0  0  0  0  0  0
   56.1641   84.1382   26.8357 H   0  0  0  0  0  0  0  0  0  0  0  0
   54.1470   85.1456   25.8441 H   0  0  0  0  0  0  0  0  0  0  0  0
   54.7977   83.7755   24.8260 H   0  0  0  0  0  0  0  0  0  0  0  0
   52.6933   83.0799   26.8005 H   0  0  0  0  0  0  0  0  0  0  0  0
   52.2103   84.1065   25.3628 H   0  0  0  0  0  0  0  0  0  0  0  0
   51.4655   84.0818   23.6292 H   0  0  0  0  0  0  0  0  0  0  0  0
   52.6011   83.7559   22.2761 H   0  0  0  0  0  0  0  0  0  0  0  0
   50.9666   83.0109   22.2761 H   0  0  0  0  0  0  0  0  0  0  0  0
   53.9679   77.1335   25.3909 H   0  0  0  0  0  0  0  0  0  0  0  0
   58.1190   77.9830   30.1390 H   0  0  0  0  0  0  0  0  0  0  0  0
   57.0129   80.5857   29.7128 H   0  0  0  0  0  0  0  0  0  0  0  0
   57.6581   80.3926   31.8906 H   0  0  0  0  0  0  0  0  0  0  0  0
   59.0688   79.3180   31.4701 H   0  0  0  0  0  0  0  0  0  0  0  0
   59.4035   81.8072   32.3836 H   0  0  0  0  0  0  0  0  0  0  0  0
   60.4928   81.0492   31.1471 H   0  0  0  0  0  0  0  0  0  0  0  0
   58.1303   82.8794   30.5662 H   0  0  0  0  0  0  0  0  0  0  0  0
   59.8991   83.3236   30.5280 H   0  0  0  0  0  0  0  0  0  0  0  0
   60.1710   82.3260   28.6020 H   0  0  0  0  0  0  0  0  0  0  0  0
   58.5560   80.5562   27.7576 H   0  0  0  0  0  0  0  0  0  0  0  0
   59.9282   80.1522   28.9060 H   0  0  0  0  0  0  0  0  0  0  0  0
   54.2080   76.1770   30.1887 H   0  0  0  0  0  0  0  0  0  0  0  0
   53.9790   81.0143   27.3306 H   0  0  0  0  0  0  0  0  0  0  0  0
  1  2  1  0
  2  3  1  0
  3  4  1  0
  4  5  1  0
  5  6  1  0
  5  7  2  0
  7  8  1  0
  8  9  2  0
  9 10  1  0
  9 11  1  0
 11 12  2  0
 12 13  1  0
 13 14  2  0
 14 15  1  0
 15 16  1  0
 16 17  1  0
 17 18  1  0
 18 19  1  0
 19 20  1  0
 20 21  1  0
 21 22  1  0
 15 23  2  0
 23 24  1  0
 24 25  2  0
 25 26  1  0
 12 27  1  0
 27 28  2  0
 28  4  1  0
 28  8  1  0
 25 13  1  0
 22 17  1  0
  1 29  1  0
  1 30  1  0
  1 31  1  0
  2 32  1  0
  2 33  1  0
  3 34  1  0
  3 35  1  0
  6 36  1  0
  6 37  1  0
  6 38  1  0
 11 39  1  0
 16 40  1  0
 17 41  1  1
 18 42  1  0
 18 43  1  0
 19 44  1  0
 19 45  1  0
 20 46  1  0
 20 47  1  0
 21 48  1  0
 22 49  1  0
 22 50  1  0
 24 51  1  0
 27 52  1  0
M  END
>  <meeko>  (1) 
{"is_sidechain": false}

>  <smiles>  (1) 
CCCn1c(C)nc2c(F)cc(-c3nc(N[C@H]4CCCNC4)ncc3F)cc21

>  <vina_score>  (1) 
-8.480

>  <job_id>  (1) 
5709e80c42f89356

$$$$
