
     RDKit          3D

 47 49  0  0  0  0  0  0  0  0999 V2000
   52.6310   80.5490   23.1810 C   0  0  0  0  0  0  0  0  0  0  0  0
   53.6820   80.4320   24.1610 N   0  0  0  0  0  0  0  0  0  0  0  0
   53.3840   80.0890   25.4660 C   0  0  0  0  0  0  0  0  0  0  0  0
   52.2410   79.9370   25.8800 O   0  0  0  0  0  0  0  0  0  0  0  0
   54.5470   79.8640   26.3690 C   0  0  0  0  0  0  0  0  0  0  0  0
   55.6550   80.7080   26.2560 C   0  0  0  0  0  0  0  0  0  0  0  0
   56.7670   80.5270   27.0850 C   0  0  0  0  0  0  0  0  0  0  0  0
   56.7990   79.5050   28.0390 C   0  0  0  0  0  0  0  0  0  0  0  0
   57.9100   79.2610   28.8640 N   0  0  0  0  0  0  0  0  0  0  0  0
   58.6390   80.0940   29.7310 C   0  0  0  0  0  0  0  0  0  0  0  0
   59.6340   80.9690   29.2920 C   0  0  0  0  0  0  0  0  0  0  0  0
   60.3050   81.8050   30.1920 C   0  0  0  0  0  0  0  0  0  0  0  0
   59.9980   81.8060   31.5590 C   0  0  0  0  0  0  0  0  0  0  0  0
   60.7160   82.6680   32.4170 N   0  0  0  0  0  0  0  0  0  0  0  0
   62.1480   82.3210   32.4260 C   0  0  0  0  0  0  0  0  0  0  0  0
   62.5010   81.3040   33.5100 C   0  0  0  0  0  0  0  0  0  0  0  0
   62.4020   81.9130   34.9130 C   0  0  0  0  0  0  0  0  0  0  0  0
   62.2430   83.3250   34.9580 O   0  0  0  0  0  0  0  0  0  0  0  0
   60.9720   83.8520   34.5780 C   0  0  0  0  0  0  0  0  0  0  0  0
   60.0940   82.9170   33.7360 C   0  0  0  0  0  0  0  0  0  0  0  0
   58.9980   80.9330   31.9970 C   0  0  0  0  0  0  0  0  0  0  0  0
   58.3280   80.0920   31.0950 C   0  0  0  0  0  0  0  0  0  0  0  0
   55.6890   78.6510   28.1280 C   0  0  0  0  0  0  0  0  0  0  0  0
   54.5710   78.8240   27.3030 C   0  0  0  0  0  0  0  0  0  0  0  0
   51.6631   80.6568   23.6924 H   0  0  0  0  0  0  0  0  0  0  0  0
   52.8134   81.4324   22.5514 H   0  0  0  0  0  0  0  0  0  0  0  0
   52.6146   79.6471   22.5514 H   0  0  0  0  0  0  0  0  0  0  0  0
   54.6220   80.2760   23.8240 H   0  0  0  0  0  0  0  0  0  0  0  0
   55.6527   81.5182   25.5119 H   0  0  0  0  0  0  0  0  0  0  0  0
   57.6312   81.2001   26.9848 H   0  0  0  0  0  0  0  0  0  0  0  0
   58.2450   78.3060   28.8370 H   0  0  0  0  0  0  0  0  0  0  0  0
   59.8944   81.0020   28.2238 H   0  0  0  0  0  0  0  0  0  0  0  0
   61.0915   82.4767   29.8174 H   0  0  0  0  0  0  0  0  0  0  0  0
   62.4137   81.8976   31.4462 H   0  0  0  0  0  0  0  0  0  0  0  0
   62.7118   83.2415   32.6376 H   0  0  0  0  0  0  0  0  0  0  0  0
   61.8066   80.4537   33.4407 H   0  0  0  0  0  0  0  0  0  0  0  0
   63.5396   80.9790   33.3499 H   0  0  0  0  0  0  0  0  0  0  0  0
   61.5378   81.4584   35.4194 H   0  0  0  0  0  0  0  0  0  0  0  0
   63.3644   81.7020   35.4021 H   0  0  0  0  0  0  0  0  0  0  0  0
   60.4196   84.0997   35.4964 H   0  0  0  0  0  0  0  0  0  0  0  0
   61.1846   84.7224   33.9399 H   0  0  0  0  0  0  0  0  0  0  0  0
   59.9731   81.9603   34.2653 H   0  0  0  0  0  0  0  0  0  0  0  0
   59.1142   83.3927   33.5824 H   0  0  0  0  0  0  0  0  0  0  0  0
   58.7324   80.9047   33.0641 H   0  0  0  0  0  0  0  0  0  0  0  0
   57.5428   79.4179   31.4679 H   0  0  0  0  0  0  0  0  0  0  0  0
   55.6974   77.8299   28.8600 H   0  0  0  0  0  0  0  0  0  0  0  0
   53.7122   78.1421   27.3897 H   0  0  0  0  0  0  0  0  0  0  0  0
  1  2  1  0
  2  3  1  0
  3  4  2  0
  3  5  1  0
  5  6  1  0
  6  7  2  0
  7  8  1  0
  8  9  1  0
  9 10  1  0
 10 11  1  0
 11 12  2  0
 12 13  1  0
 13 14  1  0
 14 15  1  0
 15 16  1  0
 16 17  1  0
 17 18  1  0
 18 19  1  0
 19 20  1  0
 13 21  2  0
 21 22  1  0
  8 23  2  0
 23 24  1  0
 24  5  2  0
 22 10  2  0
 20 14  1  0
  1 25  1  0
  1 26  1  0
  1 27  1  0
  2 28  1  0
  6 29  1  0
  7 30  1  0
  9 31  1  0
 11 32  1  0
 12 33  1  0
 15 34  1  0
 15 35  1  0
 16 36  1  0
 16 37  1  0
 17 38  1  0
 17 39  1  0
 19 40  1  0
 19 41  1  0
 20 42  1  0
 20 43  1  0
 21 44  1  0
 22 45  1  0
 23 46  1  0
 24 47  1  0
M  END
>  <meeko>  (1) 
{"is_sidechain": false}

>  <smiles>  (1) 
CNC(=O)c1ccc(Nc2ccc(N3CCCOCC3)cc2)cc1

>  <vina_score>  (1) 
-6.308

>  <job_id>  (1) 
5725a39042d353c8

$$$$
