
     RDKit          3D

 48 51  0  0  0  0  0  0  0  0999 V2000
   55.5590   76.3270   30.0840 O   0  0  0  0  0  0  0  0  0  0  0  0
   54.7820   76.4180   29.1510 C   0  0  0  0  0  0  0  0  0  0  0  0
   54.0460   75.3570   28.7700 O   0  0  0  0  0  0  0  0  0  0  0  0
   54.5840   77.6220   28.3030 C   0  0  0  0  0  0  0  0  0  0  0  0
   53.3120   77.7540   27.7120 C   0  0  0  0  0  0  0  0  0  0  0  0
   53.0160   78.8450   26.8980 C   0  0  0  0  0  0  0  0  0  0  0  0
   53.9890   79.8090   26.6590 C   0  0  0  0  0  0  0  0  0  0  0  0
   55.2570   79.6810   27.2330 C   0  0  0  0  0  0  0  0  0  0  0  0
   55.5770   78.6020   28.0780 C   0  0  0  0  0  0  0  0  0  0  0  0
   56.9000   78.4450   28.5680 N   0  0  0  0  0  0  0  0  0  0  0  0
   57.2830   78.8580   29.8230 N   0  0  0  0  0  0  0  0  0  0  0  0
   58.2510   79.8620   29.9990 C   0  0  0  0  0  0  0  0  0  0  0  0
   58.8480   80.3990   28.9190 N   0  0  0  0  0  0  0  0  0  0  0  0
   59.7610   81.3570   29.1450 C   0  0  0  0  0  0  0  0  0  0  0  0
   60.0910   81.8150   30.4010 C   0  0  0  0  0  0  0  0  0  0  0  0
   59.4390   81.1990   31.4530 C   0  0  0  0  0  0  0  0  0  0  0  0
   58.5110   80.2350   31.2610 N   0  0  0  0  0  0  0  0  0  0  0  0
   59.7220   81.6020   32.8860 C   0  0  0  0  0  0  0  0  0  0  0  0
   60.8060   82.5820   33.0590 N   0  0  0  0  0  0  0  0  0  0  0  0
   61.2640   82.7540   34.3730 C   0  0  0  0  0  0  0  0  0  0  0  0
   60.7970   83.6830   35.0550 O   0  0  0  0  0  0  0  0  0  0  0  0
   62.2950   81.8110   35.0140 C   0  0  0  0  0  0  0  0  0  0  0  0
   61.8830   80.6580   35.9540 C   0  0  0  0  0  0  0  0  0  0  0  0
   63.0600   79.8400   35.3870 C   0  0  0  0  0  0  0  0  0  0  0  0
   63.0990   80.7940   34.1780 C   0  0  0  0  0  0  0  0  0  0  0  0
   60.9420   83.5550   31.9770 C   0  0  0  0  0  0  0  0  0  0  0  0
   61.1330   82.8630   30.6270 C   0  0  0  0  0  0  0  0  0  0  0  0
   54.6560   74.5980   28.8910 H   0  0  0  0  0  0  0  0  0  0  0  0
   52.5445   76.9876   27.8952 H   0  0  0  0  0  0  0  0  0  0  0  0
   52.0177   78.9433   26.4467 H   0  0  0  0  0  0  0  0  0  0  0  0
   53.7607   80.6731   26.0177 H   0  0  0  0  0  0  0  0  0  0  0  0
   56.0226   80.4413   27.0193 H   0  0  0  0  0  0  0  0  0  0  0  0
   57.2650   77.5100   28.3170 H   0  0  0  0  0  0  0  0  0  0  0  0
   56.5400   79.0550   30.4880 H   0  0  0  0  0  0  0  0  0  0  0  0
   60.2739   81.8006   28.2789 H   0  0  0  0  0  0  0  0  0  0  0  0
   58.8019   82.0347   33.3058 H   0  0  0  0  0  0  0  0  0  0  0  0
   60.0523   80.6876   33.4006 H   0  0  0  0  0  0  0  0  0  0  0  0
   62.7714   82.7180   35.4144 H   0  0  0  0  0  0  0  0  0  0  0  0
   61.9646   80.8920   37.0257 H   0  0  0  0  0  0  0  0  0  0  0  0
   60.8576   80.2598   35.9563 H   0  0  0  0  0  0  0  0  0  0  0  0
   63.9669   79.8588   36.0092 H   0  0  0  0  0  0  0  0  0  0  0  0
   62.9796   78.7517   35.2483 H   0  0  0  0  0  0  0  0  0  0  0  0
   64.1073   81.1315   33.8960 H   0  0  0  0  0  0  0  0  0  0  0  0
   62.7553   80.4719   33.1840 H   0  0  0  0  0  0  0  0  0  0  0  0
   60.0341   84.1748   31.9365 H   0  0  0  0  0  0  0  0  0  0  0  0
   61.8284   84.1749   32.1774 H   0  0  0  0  0  0  0  0  0  0  0  0
   61.0649   83.6144   29.8265 H   0  0  0  0  0  0  0  0  0  0  0  0
   62.1201   82.3775   30.6225 H   0  0  0  0  0  0  0  0  0  0  0  0
  1  2  2  0
  2  3  1  0
  2  4  1  0
  4  5  2  0
  5  6  1  0
  6  7  2  0
  7  8  1  0
  8  9  2  0
  9 10  1  0
 10 11  1  0
 11 12  1  0
 12 13  2  0
 13 14  1  0
 14 15  2  0
 15 16  1  0
 16 17  2  0
 16 18  1  0
 18 19  1  0
 19 20  1  0
 20 21  2  0
 20 22  1  0
 22 23  1  0
 23 24  1  0
 24 25  1  0
 19 26  1  0
 26 27  1  0
  9  4  1  0
 17 12  1  0
 25 22  1  0
 27 15  1  0
  3 28  1  0
  5 29  1  0
  6 30  1  0
  7 31  1  0
  8 32  1  0
 10 33  1  0
 11 34  1  0
 14 35  1  0
 18 36  1  0
 18 37  1  0
 22 38  1  0
 23 39  1  0
 23 40  1  0
 24 41  1  0
 24 42  1  0
 25 43  1  0
 25 44  1  0
 26 45  1  0
 26 46  1  0
 27 47  1  0
 27 48  1  0
M  END
>  <meeko>  (1) 
{"is_sidechain": false}

>  <smiles>  (1) 
O=C(O)c1ccccc1NNc1ncc2c(n1)CN(C(=O)C1CCC1)CC2

>  <vina_score>  (1) 
-8.259

>  <job_id>  (1) 
5787d01ebd0b7469

$$$$
