
     RDKit          3D

 61 63  0  0  0  0  0  0  0  0999 V2000
   66.3850   87.4450   29.9680 C   0  0  0  0  0  0  0  0  0  0  0  0
   65.1950   86.4930   29.8920 C   0  0  0  0  0  0  0  0  0  0  0  0
   64.1880   86.9820   28.8540 C   0  0  0  0  0  0  0  0  0  0  0  0
   64.3820   86.2950   31.4840 S   0  0  0  0  0  0  0  0  0  0  0  0
   63.6250   87.5010   31.7630 O   0  0  0  0  0  0  0  0  0  0  0  0
   65.3520   85.7950   32.4410 O   0  0  0  0  0  0  0  0  0  0  0  0
   63.1860   85.0060   31.2090 C   0  0  0  0  0  0  0  0  0  0  0  0
   61.8290   85.2830   31.3950 C   0  0  0  0  0  0  0  0  0  0  0  0
   60.8880   84.2720   31.1870 C   0  0  0  0  0  0  0  0  0  0  0  0
   61.2830   82.9770   30.8060 C   0  0  0  0  0  0  0  0  0  0  0  0
   60.2870   81.9150   30.5900 C   0  0  0  0  0  0  0  0  0  0  0  0
   59.5760   81.3580   31.6610 C   0  0  0  0  0  0  0  0  0  0  0  0
   58.6280   80.3480   31.4480 C   0  0  0  0  0  0  0  0  0  0  0  0
   58.3530   79.8570   30.1630 C   0  0  0  0  0  0  0  0  0  0  0  0
   57.3930   78.8510   30.0230 N   0  0  0  0  0  0  0  0  0  0  0  0
   56.3250   78.6460   29.1560 C   0  0  0  0  0  0  0  0  0  0  0  0
   55.4400   77.6550   29.3280 N   0  0  0  0  0  0  0  0  0  0  0  0
   54.4460   77.5380   28.4260 C   0  0  0  0  0  0  0  0  0  0  0  0
   54.2950   78.3740   27.3500 C   0  0  0  0  0  0  0  0  0  0  0  0
   53.1970   78.2220   26.3690 C   0  0  0  0  0  0  0  0  0  0  0  0
   52.5600   77.0220   26.4600 F   0  0  0  0  0  0  0  0  0  0  0  0
   53.6090   78.3400   25.0770 F   0  0  0  0  0  0  0  0  0  0  0  0
   52.2170   79.1600   26.5200 F   0  0  0  0  0  0  0  0  0  0  0  0
   55.2420   79.3600   27.2580 C   0  0  0  0  0  0  0  0  0  0  0  0
   55.1500   80.2240   26.1880 O   0  0  0  0  0  0  0  0  0  0  0  0
   54.7040   81.5560   26.4900 C   0  0  2  0  0  0  0  0  0  0  0  0
   53.4960   81.8150   25.5860 C   0  0  0  0  0  0  0  0  0  0  0  0
   55.8380   82.5910   26.2820 C   0  0  1  0  0  0  0  0  0  0  0  0
   55.3590   84.0380   26.2160 C   0  0  0  0  0  0  0  0  0  0  0  0
   56.8350   82.4680   27.3000 O   0  0  0  0  0  0  0  0  0  0  0  0
   56.2520   79.5100   28.1340 N   0  0  0  0  0  0  0  0  0  0  0  0
   59.0640   80.4150   29.0980 C   0  0  0  0  0  0  0  0  0  0  0  0
   60.0130   81.4260   29.3060 C   0  0  0  0  0  0  0  0  0  0  0  0
   62.6570   82.7220   30.6450 C   0  0  0  0  0  0  0  0  0  0  0  0
   63.6080   83.7260   30.8510 C   0  0  0  0  0  0  0  0  0  0  0  0
   66.6306   87.6415   31.0221 H   0  0  0  0  0  0  0  0  0  0  0  0
   67.2522   86.9886   29.4684 H   0  0  0  0  0  0  0  0  0  0  0  0
   66.1301   88.3912   29.4684 H   0  0  0  0  0  0  0  0  0  0  0  0
   65.5860   85.5098   29.5914 H   0  0  0  0  0  0  0  0  0  0  0  0
   63.3118   87.4075   29.3652 H   0  0  0  0  0  0  0  0  0  0  0  0
   64.6556   87.7534   28.2245 H   0  0  0  0  0  0  0  0  0  0  0  0
   63.8710   86.1375   28.2245 H   0  0  0  0  0  0  0  0  0  0  0  0
   61.5048   86.2882   31.7024 H   0  0  0  0  0  0  0  0  0  0  0  0
   59.8190   84.4925   31.3236 H   0  0  0  0  0  0  0  0  0  0  0  0
   59.7644   81.7183   32.6831 H   0  0  0  0  0  0  0  0  0  0  0  0
   58.0864   79.9301   32.3094 H   0  0  0  0  0  0  0  0  0  0  0  0
   57.4430   78.0790   30.6730 H   0  0  0  0  0  0  0  0  0  0  0  0
   53.7152   76.7269   28.5604 H   0  0  0  0  0  0  0  0  0  0  0  0
   54.4176   81.6576   27.5472 H   0  0  0  0  0  0  0  0  0  0  0  0
   52.6079   82.0054   26.2064 H   0  0  0  0  0  0  0  0  0  0  0  0
   53.6944   82.6910   24.9510 H   0  0  0  0  0  0  0  0  0  0  0  0
   53.3178   80.9347   24.9510 H   0  0  0  0  0  0  0  0  0  0  0  0
   56.2659   82.3525   25.2971 H   0  0  0  0  0  0  0  0  0  0  0  0
   55.2298   84.4284   27.2363 H   0  0  0  0  0  0  0  0  0  0  0  0
   56.1036   84.6467   25.6821 H   0  0  0  0  0  0  0  0  0  0  0  0
   54.3983   84.0822   25.6821 H   0  0  0  0  0  0  0  0  0  0  0  0
   56.7030   83.1850   27.9440 H   0  0  0  0  0  0  0  0  0  0  0  0
   58.8757   80.0542   28.0761 H   0  0  0  0  0  0  0  0  0  0  0  0
   60.5533   81.8436   28.4436 H   0  0  0  0  0  0  0  0  0  0  0  0
   62.9890   81.7151   30.3519 H   0  0  0  0  0  0  0  0  0  0  0  0
   64.6796   83.5081   30.7317 H   0  0  0  0  0  0  0  0  0  0  0  0
  1  2  1  0
  2  3  1  0
  2  4  1  0
  4  5  2  0
  4  6  2  0
  4  7  1  0
  7  8  1  0
  8  9  2  0
  9 10  1  0
 10 11  1  0
 11 12  1  0
 12 13  2  0
 13 14  1  0
 14 15  1  0
 15 16  1  0
 16 17  2  0
 17 18  1  0
 18 19  2  0
 19 20  1  0
 20 21  1  0
 20 22  1  0
 20 23  1  0
 19 24  1  0
 24 25  1  0
 25 26  1  0
 26 27  1  0
 26 28  1  0
 28 29  1  0
 28 30  1  0
 24 31  2  0
 14 32  2  0
 32 33  1  0
 10 34  2  0
 34 35  1  0
 35  7  2  0
 33 11  2  0
 31 16  1  0
  1 36  1  0
  1 37  1  0
  1 38  1  0
  2 39  1  0
  3 40  1  0
  3 41  1  0
  3 42  1  0
  8 43  1  0
  9 44  1  0
 12 45  1  0
 13 46  1  0
 15 47  1  0
 18 48  1  0
 26 49  1  1
 27 50  1  0
 27 51  1  0
 27 52  1  0
 28 53  1  6
 29 54  1  0
 29 55  1  0
 29 56  1  0
 30 57  1  0
 32 58  1  0
 33 59  1  0
 34 60  1  0
 35 61  1  0
M  END
>  <meeko>  (1) 
{"is_sidechain": false}

>  <smiles>  (1) 
CC(C)S(=O)(=O)c1ccc(-c2ccc(Nc3ncc(C(F)(F)F)c(O[C@H](C)[C@@H](C)O)n3)cc2)cc1

>  <vina_score>  (1) 
-8.137

>  <job_id>  (1) 
57bd73a609db81e2

$$$$
