
     RDKit          3D

 39 40  0  0  0  0  0  0  0  0999 V2000
   53.0240   79.5880   23.8270 C   0  0  0  0  0  0  0  0  0  0  0  0
   52.4330   80.6710   24.5990 N   0  0  0  0  0  0  0  0  0  0  0  0
   51.3110   81.3570   23.9820 C   0  0  0  0  0  0  0  0  0  0  0  0
   53.0070   81.2390   25.7360 C   0  0  0  0  0  0  0  0  0  0  0  0
   52.6950   82.3470   26.1700 O   0  0  0  0  0  0  0  0  0  0  0  0
   54.0370   80.4790   26.4820 C   0  0  0  0  0  0  0  0  0  0  0  0
   55.3740   80.8760   26.3790 C   0  0  0  0  0  0  0  0  0  0  0  0
   56.3590   80.1910   27.0920 C   0  0  0  0  0  0  0  0  0  0  0  0
   56.0150   79.1190   27.9290 C   0  0  0  0  0  0  0  0  0  0  0  0
   57.0760   78.3580   28.6830 C   0  0  0  0  0  0  0  0  0  0  0  0
   57.5230   79.1050   29.8380 N   0  0  0  0  0  0  0  0  0  0  0  0
   58.6070   79.9540   29.7660 C   0  0  0  0  0  0  0  0  0  0  0  0
   59.3120   80.0740   28.7710 O   0  0  0  0  0  0  0  0  0  0  0  0
   58.8760   80.7810   30.9760 C   0  0  0  0  0  0  0  0  0  0  0  0
   59.9040   81.7330   31.0120 C   0  0  0  0  0  0  0  0  0  0  0  0
   60.1180   82.4850   32.1690 C   0  0  0  0  0  0  0  0  0  0  0  0
   59.3070   82.2950   33.2880 C   0  0  0  0  0  0  0  0  0  0  0  0
   58.2730   81.3600   33.2510 C   0  0  0  0  0  0  0  0  0  0  0  0
   58.0550   80.6070   32.0970 C   0  0  0  0  0  0  0  0  0  0  0  0
   54.6670   78.7410   28.0380 C   0  0  0  0  0  0  0  0  0  0  0  0
   53.6790   79.4250   27.3280 C   0  0  0  0  0  0  0  0  0  0  0  0
   53.4364   78.8323   24.5117 H   0  0  0  0  0  0  0  0  0  0  0  0
   52.2527   79.1264   23.1929 H   0  0  0  0  0  0  0  0  0  0  0  0
   53.8295   79.9868   23.1929 H   0  0  0  0  0  0  0  0  0  0  0  0
   50.6520   81.7599   24.7652 H   0  0  0  0  0  0  0  0  0  0  0  0
   51.6842   82.1815   23.3568 H   0  0  0  0  0  0  0  0  0  0  0  0
   50.7472   80.6490   23.3568 H   0  0  0  0  0  0  0  0  0  0  0  0
   55.6487   81.7263   25.7374 H   0  0  0  0  0  0  0  0  0  0  0  0
   57.4123   80.4937   26.9970 H   0  0  0  0  0  0  0  0  0  0  0  0
   56.6612   77.3949   29.0152 H   0  0  0  0  0  0  0  0  0  0  0  0
   57.9347   78.1959   28.0148 H   0  0  0  0  0  0  0  0  0  0  0  0
   56.8520   79.2370   30.5800 H   0  0  0  0  0  0  0  0  0  0  0  0
   60.5419   81.8877   30.1293 H   0  0  0  0  0  0  0  0  0  0  0  0
   60.9279   83.2288   32.1981 H   0  0  0  0  0  0  0  0  0  0  0  0
   59.4833   82.8833   34.2006 H   0  0  0  0  0  0  0  0  0  0  0  0
   57.6295   81.2163   34.1315 H   0  0  0  0  0  0  0  0  0  0  0  0
   57.2353   79.8740   32.0676 H   0  0  0  0  0  0  0  0  0  0  0  0
   54.3874   77.8990   28.6882 H   0  0  0  0  0  0  0  0  0  0  0  0
   52.6229   79.1360   27.4336 H   0  0  0  0  0  0  0  0  0  0  0  0
  1  2  1  0
  2  3  1  0
  2  4  1  0
  4  5  2  0
  4  6  1  0
  6  7  1  0
  7  8  2  0
  8  9  1  0
  9 10  1  0
 10 11  1  0
 11 12  1  0
 12 13  2  0
 12 14  1  0
 14 15  2  0
 15 16  1  0
 16 17  2  0
 17 18  1  0
 18 19  2  0
  9 20  2  0
 20 21  1  0
 21  6  2  0
 19 14  1  0
  1 22  1  0
  1 23  1  0
  1 24  1  0
  3 25  1  0
  3 26  1  0
  3 27  1  0
  7 28  1  0
  8 29  1  0
 10 30  1  0
 10 31  1  0
 11 32  1  0
 15 33  1  0
 16 34  1  0
 17 35  1  0
 18 36  1  0
 19 37  1  0
 20 38  1  0
 21 39  1  0
M  END
>  <meeko>  (1) 
{"is_sidechain": false}

>  <smiles>  (1) 
CN(C)C(=O)c1ccc(CNC(=O)c2ccccc2)cc1

>  <vina_score>  (1) 
-7.692

>  <job_id>  (1) 
58856739a729f28e

$$$$
