
     RDKit          3D

 51 53  0  0  0  0  0  0  0  0999 V2000
   53.6860   78.6970   24.2700 C   0  0  0  0  0  0  0  0  0  0  0  0
   52.4930   78.9380   23.5210 O   0  0  0  0  0  0  0  0  0  0  0  0
   52.0840   80.2340   23.5010 C   0  0  0  0  0  0  0  0  0  0  0  0
   50.9130   80.6040   23.5230 O   0  0  0  0  0  0  0  0  0  0  0  0
   53.2500   81.1690   23.5350 C   0  0  0  0  0  0  0  0  0  0  0  0
   52.9340   82.5790   23.9700 C   0  0  0  0  0  0  0  0  0  0  0  0
   52.2060   83.2950   23.2730 O   0  0  0  0  0  0  0  0  0  0  0  0
   53.5180   83.1200   25.2560 C   0  0  0  0  0  0  0  0  0  0  0  0
   54.7350   82.3810   25.7510 C   0  0  0  0  0  0  0  0  0  0  0  0
   55.8690   82.6850   25.3820 O   0  0  0  0  0  0  0  0  0  0  0  0
   54.5610   81.2270   26.6890 C   0  0  0  0  0  0  0  0  0  0  0  0
   53.3120   80.7870   27.1300 C   0  0  0  0  0  0  0  0  0  0  0  0
   53.1950   79.6870   27.9910 C   0  0  0  0  0  0  0  0  0  0  0  0
   54.3660   79.0030   28.3430 C   0  0  0  0  0  0  0  0  0  0  0  0
   54.5450   77.9040   29.1500 N   0  0  0  0  0  0  0  0  0  0  0  0
   55.8650   77.5300   29.1660 C   0  0  0  0  0  0  0  0  0  0  0  0
   56.2970   76.4820   29.8610 O   0  0  0  0  0  0  0  0  0  0  0  0
   56.5610   78.3830   28.3290 C   0  0  0  0  0  0  0  0  0  0  0  0
   57.9730   78.2040   28.0200 C   0  0  0  0  0  0  0  0  0  0  0  0
   58.9740   78.8960   28.4900 N   0  0  0  0  0  0  0  0  0  0  0  0
   58.7580   79.9660   29.3670 C   0  0  0  0  0  0  0  0  0  0  0  0
   58.8630   81.2750   28.8840 C   0  0  0  0  0  0  0  0  0  0  0  0
   58.8750   82.3560   29.7680 C   0  0  0  0  0  0  0  0  0  0  0  0
   58.7180   82.1180   31.1360 C   0  0  0  0  0  0  0  0  0  0  0  0
   58.9760   83.4380   32.2870 S   0  0  0  0  0  0  0  0  0  0  0  0
   57.4350   84.0630   32.5210 N   0  0  0  0  0  0  0  0  0  0  0  0
   59.7580   84.4430   31.6020 O   0  0  0  0  0  0  0  0  0  0  0  0
   59.3960   82.8660   33.5450 O   0  0  0  0  0  0  0  0  0  0  0  0
   58.4680   80.8310   31.6150 C   0  0  0  0  0  0  0  0  0  0  0  0
   58.4810   79.7570   30.7240 C   0  0  0  0  0  0  0  0  0  0  0  0
   55.6270   79.3780   27.8830 C   0  0  0  0  0  0  0  0  0  0  0  0
   55.7200   80.5510   27.1070 C   0  0  0  0  0  0  0  0  0  0  0  0
   53.4593   78.7428   25.3454 H   0  0  0  0  0  0  0  0  0  0  0  0
   54.0806   77.7010   24.0206 H   0  0  0  0  0  0  0  0  0  0  0  0
   54.4363   79.4617   24.0206 H   0  0  0  0  0  0  0  0  0  0  0  0
   53.9953   80.7575   24.2316 H   0  0  0  0  0  0  0  0  0  0  0  0
   53.6097   81.2441   22.4982 H   0  0  0  0  0  0  0  0  0  0  0  0
   53.7982   84.1708   25.0905 H   0  0  0  0  0  0  0  0  0  0  0  0
   52.7430   82.9970   26.0269 H   0  0  0  0  0  0  0  0  0  0  0  0
   52.4047   81.3120   26.7965 H   0  0  0  0  0  0  0  0  0  0  0  0
   52.2150   79.3709   28.3780 H   0  0  0  0  0  0  0  0  0  0  0  0
   53.7960   77.4330   29.6350 H   0  0  0  0  0  0  0  0  0  0  0  0
   56.2900   76.6790   30.8120 H   0  0  0  0  0  0  0  0  0  0  0  0
   58.2223   77.3982   27.3140 H   0  0  0  0  0  0  0  0  0  0  0  0
   58.9366   81.4537   27.8011 H   0  0  0  0  0  0  0  0  0  0  0  0
   59.0063   83.3815   29.3924 H   0  0  0  0  0  0  0  0  0  0  0  0
   56.8490   83.8530   31.6970 H   0  0  0  0  0  0  0  0  0  0  0  0
   56.9890   83.7550   33.3830 H   0  0  0  0  0  0  0  0  0  0  0  0
   58.2630   80.6652   32.6829 H   0  0  0  0  0  0  0  0  0  0  0  0
   58.2725   78.7406   31.0894 H   0  0  0  0  0  0  0  0  0  0  0  0
   56.7093   80.9411   26.8259 H   0  0  0  0  0  0  0  0  0  0  0  0
  1  2  1  0
  2  3  1  0
  3  4  2  0
  3  5  1  0
  5  6  1  0
  6  7  2  0
  6  8  1  0
  8  9  1  0
  9 10  2  0
  9 11  1  0
 11 12  2  0
 12 13  1  0
 13 14  2  0
 14 15  1  0
 15 16  1  0
 16 17  1  0
 16 18  2  0
 18 19  1  0
 19 20  2  3
 20 21  1  0
 21 22  1  0
 22 23  2  0
 23 24  1  0
 24 25  1  0
 25 26  1  0
 25 27  2  0
 25 28  2  0
 24 29  2  0
 29 30  1  0
 18 31  1  0
 31 32  2  0
 32 11  1  0
 31 14  1  0
 30 21  2  0
  1 33  1  0
  1 34  1  0
  1 35  1  0
  5 36  1  0
  5 37  1  0
  8 38  1  0
  8 39  1  0
 12 40  1  0
 13 41  1  0
 15 42  1  0
 17 43  1  0
 19 44  1  0
 22 45  1  0
 23 46  1  0
 26 47  1  0
 26 48  1  0
 29 49  1  0
 30 50  1  0
 32 51  1  0
M  END
>  <meeko>  (1) 
{"is_sidechain": false}

>  <smiles>  (1) 
COC(=O)CC(=O)CC(=O)c1ccc2[nH]c(O)c(C=Nc3ccc(S(N)(=O)=O)cc3)c2c1

>  <vina_score>  (1) 
-7.768

>  <job_id>  (1) 
58ad0aa4e0e95242

$$$$
