
     RDKit          3D

 57 60  0  0  0  0  0  0  0  0999 V2000
   60.8490   82.0200   31.5770 C   0  0  0  0  0  0  0  0  0  0  0  0
   59.4410   82.3650   31.3920 N   0  0  0  0  0  0  0  0  0  0  0  0
   59.1020   82.5950   29.9840 C   0  0  0  0  0  0  0  0  0  0  0  0
   59.0360   81.3190   29.1410 C   0  0  0  0  0  0  0  0  0  0  0  0
   58.0860   80.2820   29.7580 C   0  0  0  0  0  0  0  0  0  0  0  0
   58.1210   78.9790   28.9370 C   0  0  0  0  0  0  0  0  0  0  0  0
   56.7750   78.3490   28.7570 C   0  0  0  0  0  0  0  0  0  0  0  0
   56.3630   77.1410   29.2880 C   0  0  0  0  0  0  0  0  0  0  0  0
   55.0730   76.9130   28.8920 N   0  0  0  0  0  0  0  0  0  0  0  0
   54.2980   75.7440   29.2430 C   0  0  0  0  0  0  0  0  0  0  0  0
   54.6220   77.9540   28.1090 C   0  0  0  0  0  0  0  0  0  0  0  0
   53.3900   78.1680   27.4790 C   0  0  0  0  0  0  0  0  0  0  0  0
   53.2240   79.3450   26.7330 C   0  0  0  0  0  0  0  0  0  0  0  0
   54.2410   80.2970   26.6040 C   0  0  0  0  0  0  0  0  0  0  0  0
   54.0930   81.4910   25.8700 N   0  0  0  0  0  0  0  0  0  0  0  0
   55.0950   82.5440   26.0610 C   0  0  0  0  0  0  0  0  0  0  0  0
   54.4550   83.9310   26.0020 C   0  0  0  0  0  0  0  0  0  0  0  0
   52.9860   83.9650   25.5880 C   0  0  0  0  0  0  0  0  0  0  0  0
   52.7020   83.6150   24.1960 N   0  0  0  0  0  0  0  0  0  0  0  0
   52.5450   82.1750   23.9550 C   0  0  0  0  0  0  0  0  0  0  0  0
   53.6480   81.2240   24.4770 C   0  0  0  0  0  0  0  0  0  0  0  0
   55.4640   80.0470   27.2550 C   0  0  0  0  0  0  0  0  0  0  0  0
   55.6690   78.8720   28.0140 C   0  0  0  0  0  0  0  0  0  0  0  0
   58.4540   80.0530   31.2330 C   0  0  0  0  0  0  0  0  0  0  0  0
   58.5430   81.3750   31.9990 C   0  0  0  0  0  0  0  0  0  0  0  0
   61.0747   81.9647   32.6522 H   0  0  0  0  0  0  0  0  0  0  0  0
   61.0523   81.0455   31.1090 H   0  0  0  0  0  0  0  0  0  0  0  0
   61.4798   82.7902   31.1090 H   0  0  0  0  0  0  0  0  0  0  0  0
   58.1199   83.0886   29.9412 H   0  0  0  0  0  0  0  0  0  0  0  0
   59.9070   83.2138   29.5607 H   0  0  0  0  0  0  0  0  0  0  0  0
   58.6784   81.5754   28.1328 H   0  0  0  0  0  0  0  0  0  0  0  0
   60.0442   80.8808   29.1008 H   0  0  0  0  0  0  0  0  0  0  0  0
   57.0523   80.6571   29.7290 H   0  0  0  0  0  0  0  0  0  0  0  0
   58.5352   79.2049   27.9433 H   0  0  0  0  0  0  0  0  0  0  0  0
   58.7412   78.2621   29.4950 H   0  0  0  0  0  0  0  0  0  0  0  0
   56.9689   76.4761   29.9211 H   0  0  0  0  0  0  0  0  0  0  0  0
   54.2406   75.6574   30.3381 H   0  0  0  0  0  0  0  0  0  0  0  0
   53.2833   75.8389   28.8290 H   0  0  0  0  0  0  0  0  0  0  0  0
   54.7805   74.8463   28.8290 H   0  0  0  0  0  0  0  0  0  0  0  0
   52.5752   77.4342   27.5663 H   0  0  0  0  0  0  0  0  0  0  0  0
   52.2612   79.5252   26.2325 H   0  0  0  0  0  0  0  0  0  0  0  0
   55.5734   82.4107   27.0425 H   0  0  0  0  0  0  0  0  0  0  0  0
   55.8390   82.4683   25.2543 H   0  0  0  0  0  0  0  0  0  0  0  0
   54.5350   84.3829   27.0017 H   0  0  0  0  0  0  0  0  0  0  0  0
   54.9998   84.4797   25.2196 H   0  0  0  0  0  0  0  0  0  0  0  0
   52.4392   83.2591   26.2304 H   0  0  0  0  0  0  0  0  0  0  0  0
   52.6714   85.0131   25.6996 H   0  0  0  0  0  0  0  0  0  0  0  0
   51.8410   84.0910   23.9270 H   0  0  0  0  0  0  0  0  0  0  0  0
   51.5990   81.8666   24.4241 H   0  0  0  0  0  0  0  0  0  0  0  0
   52.5923   82.0741   22.8607 H   0  0  0  0  0  0  0  0  0  0  0  0
   53.2619   80.1949   24.4324 H   0  0  0  0  0  0  0  0  0  0  0  0
   54.5262   81.3862   23.8348 H   0  0  0  0  0  0  0  0  0  0  0  0
   56.2780   80.7821   27.1712 H   0  0  0  0  0  0  0  0  0  0  0  0
   57.6846   79.4203   31.6996 H   0  0  0  0  0  0  0  0  0  0  0  0
   59.4385   79.5639   31.2719 H   0  0  0  0  0  0  0  0  0  0  0  0
   57.5346   81.8112   32.0519 H   0  0  0  0  0  0  0  0  0  0  0  0
   58.9585   81.1380   32.9896 H   0  0  0  0  0  0  0  0  0  0  0  0
  1  2  1  0
  2  3  1  0
  3  4  1  0
  4  5  1  0
  5  6  1  0
  6  7  1  0
  7  8  2  0
  8  9  1  0
  9 10  1  0
  9 11  1  0
 11 12  2  0
 12 13  1  0
 13 14  2  0
 14 15  1  0
 15 16  1  0
 16 17  1  0
 17 18  1  0
 18 19  1  0
 19 20  1  0
 20 21  1  0
 14 22  1  0
 22 23  2  0
  5 24  1  0
 24 25  1  0
 25  2  1  0
 23  7  1  0
 23 11  1  0
 21 15  1  0
  1 26  1  0
  1 27  1  0
  1 28  1  0
  3 29  1  0
  3 30  1  0
  4 31  1  0
  4 32  1  0
  5 33  1  0
  6 34  1  0
  6 35  1  0
  8 36  1  0
 10 37  1  0
 10 38  1  0
 10 39  1  0
 12 40  1  0
 13 41  1  0
 16 42  1  0
 16 43  1  0
 17 44  1  0
 17 45  1  0
 18 46  1  0
 18 47  1  0
 19 48  1  0
 20 49  1  0
 20 50  1  0
 21 51  1  0
 21 52  1  0
 22 53  1  0
 24 54  1  0
 24 55  1  0
 25 56  1  0
 25 57  1  0
M  END
>  <meeko>  (1) 
{"is_sidechain": false}

>  <smiles>  (1) 
CN1CCC(Cc2cn(C)c3ccc(N4CCCNCC4)cc23)CC1

>  <vina_score>  (1) 
-6.175

>  <job_id>  (1) 
592a6a0634c2778b

$$$$
