
     RDKit          3D

 60 63  0  0  0  0  0  0  0  0999 V2000
   63.6050   88.1060   27.4140 C   0  0  0  0  0  0  0  0  0  0  0  0
   64.4270   87.3520   26.5340 O   0  0  0  0  0  0  0  0  0  0  0  0
   65.7110   87.0880   27.0990 C   0  0  0  0  0  0  0  0  0  0  0  0
   65.6450   86.9930   28.5030 O   0  0  0  0  0  0  0  0  0  0  0  0
   65.7620   85.5230   29.1500 S   0  0  0  0  0  0  0  0  0  0  0  0
   65.6580   84.7370   27.8510 N   0  0  0  0  0  0  0  0  0  0  0  0
   66.8100   85.4800   30.1340 O   0  0  0  0  0  0  0  0  0  0  0  0
   64.2920   85.1840   29.8600 N   0  0  0  0  0  0  0  0  0  0  0  0
   63.9290   84.0270   30.5770 C   0  0  0  0  0  0  0  0  0  0  0  0
   64.7120   82.8700   30.6450 C   0  0  0  0  0  0  0  0  0  0  0  0
   64.3560   81.7640   31.4340 C   0  0  0  0  0  0  0  0  0  0  0  0
   63.1850   81.8580   32.1890 C   0  0  0  0  0  0  0  0  0  0  0  0
   62.6070   80.9530   33.0550 N   0  0  0  0  0  0  0  0  0  0  0  0
   61.4630   81.4760   33.6080 C   0  0  0  0  0  0  0  0  0  0  0  0
   60.7260   80.8080   34.4900 O   0  0  0  0  0  0  0  0  0  0  0  0
   61.2980   82.7280   33.0560 C   0  0  0  0  0  0  0  0  0  0  0  0
   60.2770   83.6340   33.3760 N   0  0  0  0  0  0  0  0  0  0  0  0
   59.1990   83.6730   32.7280 N   0  0  0  0  0  0  0  0  0  0  0  0
   58.9260   82.6810   31.7660 C   0  0  0  0  0  0  0  0  0  0  0  0
   59.2940   82.8620   30.4270 C   0  0  0  0  0  0  0  0  0  0  0  0
   59.0470   81.8660   29.4780 C   0  0  0  0  0  0  0  0  0  0  0  0
   58.4320   80.6720   29.8710 C   0  0  0  0  0  0  0  0  0  0  0  0
   58.1530   79.5880   28.8970 C   0  0  0  0  0  0  0  0  0  0  0  0
   58.9350   78.6470   28.8080 O   0  0  0  0  0  0  0  0  0  0  0  0
   56.9440   79.6170   28.0310 C   0  0  0  0  0  0  0  0  0  0  0  0
   56.8940   80.5540   26.9890 C   0  0  0  0  0  0  0  0  0  0  0  0
   55.7830   80.6060   26.1450 C   0  0  0  0  0  0  0  0  0  0  0  0
   54.7220   79.7170   26.3470 C   0  0  0  0  0  0  0  0  0  0  0  0
   53.3270   79.7720   25.2600 S   0  0  0  0  0  0  0  0  0  0  0  0
   53.6860   81.1060   24.3040 N   0  0  0  0  0  0  0  0  0  0  0  0
   52.1510   80.1380   26.0150 O   0  0  0  0  0  0  0  0  0  0  0  0
   53.3650   78.6260   24.3840 O   0  0  0  0  0  0  0  0  0  0  0  0
   54.7780   78.7590   27.3640 C   0  0  0  0  0  0  0  0  0  0  0  0
   55.8920   78.7080   28.2050 C   0  0  0  0  0  0  0  0  0  0  0  0
   58.1100   80.4610   31.2150 C   0  0  0  0  0  0  0  0  0  0  0  0
   58.3600   81.4630   32.1560 C   0  0  0  0  0  0  0  0  0  0  0  0
   62.3850   82.9970   32.1830 C   0  0  0  0  0  0  0  0  0  0  0  0
   62.7770   84.0950   31.3880 C   0  0  0  0  0  0  0  0  0  0  0  0
   63.8662   87.8664   28.4553 H   0  0  0  0  0  0  0  0  0  0  0  0
   63.7633   89.1796   27.2340 H   0  0  0  0  0  0  0  0  0  0  0  0
   62.5491   87.8558   27.2340 H   0  0  0  0  0  0  0  0  0  0  0  0
   66.0922   86.1391   26.6936 H   0  0  0  0  0  0  0  0  0  0  0  0
   66.3813   87.9206   26.8395 H   0  0  0  0  0  0  0  0  0  0  0  0
   66.3280   85.1140   27.1810 H   0  0  0  0  0  0  0  0  0  0  0  0
   63.5800   85.4640   29.1980 H   0  0  0  0  0  0  0  0  0  0  0  0
   65.6415   82.8246   30.0585 H   0  0  0  0  0  0  0  0  0  0  0  0
   64.9772   80.8565   31.4564 H   0  0  0  0  0  0  0  0  0  0  0  0
   62.9920   80.0420   33.2540 H   0  0  0  0  0  0  0  0  0  0  0  0
   61.1600   80.8040   35.3590 H   0  0  0  0  0  0  0  0  0  0  0  0
   59.7827   83.7980   30.1188 H   0  0  0  0  0  0  0  0  0  0  0  0
   59.3346   82.0199   28.4275 H   0  0  0  0  0  0  0  0  0  0  0  0
   57.7322   81.2498   26.8362 H   0  0  0  0  0  0  0  0  0  0  0  0
   55.7423   81.3406   25.3273 H   0  0  0  0  0  0  0  0  0  0  0  0
   54.6130   80.9930   23.8920 H   0  0  0  0  0  0  0  0  0  0  0  0
   52.9460   81.2450   23.6160 H   0  0  0  0  0  0  0  0  0  0  0  0
   53.9489   78.0491   27.5010 H   0  0  0  0  0  0  0  0  0  0  0  0
   55.9435   77.9539   29.0042 H   0  0  0  0  0  0  0  0  0  0  0  0
   57.6607   79.5080   31.5310 H   0  0  0  0  0  0  0  0  0  0  0  0
   58.1093   81.2923   33.2134 H   0  0  0  0  0  0  0  0  0  0  0  0
   62.1761   85.0163   31.4009 H   0  0  0  0  0  0  0  0  0  0  0  0
  1  2  1  0
  2  3  1  0
  3  4  1  0
  4  5  1  0
  5  6  2  0
  5  7  2  0
  5  8  1  0
  8  9  1  0
  9 10  2  0
 10 11  1  0
 11 12  2  0
 12 13  1  0
 13 14  1  0
 14 15  1  0
 14 16  2  0
 16 17  1  0
 17 18  2  3
 18 19  1  0
 19 20  1  0
 20 21  2  0
 21 22  1  0
 22 23  1  0
 23 24  2  0
 23 25  1  0
 25 26  1  0
 26 27  2  0
 27 28  1  0
 28 29  1  0
 29 30  1  0
 29 31  2  0
 29 32  2  0
 28 33  2  0
 33 34  1  0
 22 35  2  0
 35 36  1  0
 16 37  1  0
 37 38  2  0
 38  9  1  0
 37 12  1  0
 36 19  2  0
 34 25  2  0
  1 39  1  0
  1 40  1  0
  1 41  1  0
  3 42  1  0
  3 43  1  0
  6 44  1  0
  8 45  1  0
 10 46  1  0
 11 47  1  0
 13 48  1  0
 15 49  1  0
 20 50  1  0
 21 51  1  0
 26 52  1  0
 27 53  1  0
 30 54  1  0
 30 55  1  0
 33 56  1  0
 34 57  1  0
 35 58  1  0
 36 59  1  0
 38 60  1  0
M  END
>  <meeko>  (1) 
{"is_sidechain": false}

>  <smiles>  (1) 
COCOS(=N)(=O)Nc1ccc2[nH]c(O)c(N=Nc3ccc(C(=O)c4ccc(S(N)(=O)=O)cc4)cc3)c2c1

>  <vina_score>  (1) 
-8.231

>  <job_id>  (1) 
5a9c88ed20de13b9

$$$$
