
     RDKit          3D

 47 49  0  0  0  0  0  0  0  0999 V2000
   63.8100   78.9750   36.8220 O   0  0  0  0  0  0  0  0  0  0  0  0
   63.0540   79.9280   36.9170 C   0  0  0  0  0  0  0  0  0  0  0  0
   62.7420   80.4110   38.1310 O   0  0  0  0  0  0  0  0  0  0  0  0
   62.4450   80.5990   35.8930 N   0  0  0  0  0  0  0  0  0  0  0  0
   61.5600   81.7450   36.1130 C   0  0  0  0  0  0  0  0  0  0  0  0
   61.3110   82.5600   34.8380 C   0  0  0  0  0  0  0  0  0  0  0  0
   60.8680   81.7320   33.7140 N   0  0  0  0  0  0  0  0  0  0  0  0
   60.1960   82.3600   32.6690 C   0  0  0  0  0  0  0  0  0  0  0  0
   60.0200   83.5750   32.6170 O   0  0  0  0  0  0  0  0  0  0  0  0
   59.6680   81.5350   31.5580 C   0  0  0  0  0  0  0  0  0  0  0  0
   58.6420   80.6110   31.7760 C   0  0  0  0  0  0  0  0  0  0  0  0
   58.1500   79.8570   30.7090 C   0  0  0  0  0  0  0  0  0  0  0  0
   58.6710   80.0300   29.4180 C   0  0  0  0  0  0  0  0  0  0  0  0
   58.1220   79.2310   28.2600 C   0  0  0  0  0  0  0  0  0  0  0  0
   56.9100   79.9170   27.6240 C   0  0  0  0  0  0  0  0  0  0  0  0
   55.6610   79.0850   27.7740 C   0  0  0  0  0  0  0  0  0  0  0  0
   54.5730   79.2760   26.9110 C   0  0  0  0  0  0  0  0  0  0  0  0
   53.4250   78.4920   27.0360 C   0  0  0  0  0  0  0  0  0  0  0  0
   53.3560   77.5080   28.0200 C   0  0  0  0  0  0  0  0  0  0  0  0
   54.4340   77.3050   28.8800 C   0  0  0  0  0  0  0  0  0  0  0  0
   55.5830   78.0880   28.7560 C   0  0  0  0  0  0  0  0  0  0  0  0
   59.6790   80.9820   29.2060 C   0  0  0  0  0  0  0  0  0  0  0  0
   60.1730   81.7370   30.2720 C   0  0  0  0  0  0  0  0  0  0  0  0
   61.3940   80.3580   33.6550 C   0  0  0  0  0  0  0  0  0  0  0  0
   62.6480   80.1620   34.5160 C   0  0  0  0  0  0  0  0  0  0  0  0
   63.6190   80.6360   38.5040 H   0  0  0  0  0  0  0  0  0  0  0  0
   60.5940   81.3757   36.4877 H   0  0  0  0  0  0  0  0  0  0  0  0
   62.0535   82.4089   36.8381 H   0  0  0  0  0  0  0  0  0  0  0  0
   60.5364   83.3125   35.0473 H   0  0  0  0  0  0  0  0  0  0  0  0
   62.2650   83.0263   34.5508 H   0  0  0  0  0  0  0  0  0  0  0  0
   58.2237   80.4784   32.7847 H   0  0  0  0  0  0  0  0  0  0  0  0
   57.3491   79.1230   30.8816 H   0  0  0  0  0  0  0  0  0  0  0  0
   58.9085   79.1192   27.4991 H   0  0  0  0  0  0  0  0  0  0  0  0
   57.8007   78.2505   28.6412 H   0  0  0  0  0  0  0  0  0  0  0  0
   56.7524   80.8895   28.1133 H   0  0  0  0  0  0  0  0  0  0  0  0
   57.1112   80.0464   26.5503 H   0  0  0  0  0  0  0  0  0  0  0  0
   54.6243   80.0489   26.1300 H   0  0  0  0  0  0  0  0  0  0  0  0
   52.5742   78.6511   26.3572 H   0  0  0  0  0  0  0  0  0  0  0  0
   52.4505   76.8912   28.1182 H   0  0  0  0  0  0  0  0  0  0  0  0
   54.3793   76.5277   29.6564 H   0  0  0  0  0  0  0  0  0  0  0  0
   56.4332   77.9213   29.4338 H   0  0  0  0  0  0  0  0  0  0  0  0
   60.0828   81.1348   28.1943 H   0  0  0  0  0  0  0  0  0  0  0  0
   60.9575   82.4884   30.0991 H   0  0  0  0  0  0  0  0  0  0  0  0
   60.6139   79.6679   34.0088 H   0  0  0  0  0  0  0  0  0  0  0  0
   61.6755   80.1566   32.6109 H   0  0  0  0  0  0  0  0  0  0  0  0
   62.9126   79.0943   34.5186 H   0  0  0  0  0  0  0  0  0  0  0  0
   63.4537   80.7731   34.0831 H   0  0  0  0  0  0  0  0  0  0  0  0
  1  2  2  0
  2  3  1  0
  2  4  1  0
  4  5  1  0
  5  6  1  0
  6  7  1  0
  7  8  1  0
  8  9  2  0
  8 10  1  0
 10 11  1  0
 11 12  2  0
 12 13  1  0
 13 14  1  0
 14 15  1  0
 15 16  1  0
 16 17  2  0
 17 18  1  0
 18 19  2  0
 19 20  1  0
 20 21  2  0
 13 22  2  0
 22 23  1  0
  7 24  1  0
 24 25  1  0
 25  4  1  0
 23 10  2  0
 21 16  1  0
  3 26  1  0
  5 27  1  0
  5 28  1  0
  6 29  1  0
  6 30  1  0
 11 31  1  0
 12 32  1  0
 14 33  1  0
 14 34  1  0
 15 35  1  0
 15 36  1  0
 17 37  1  0
 18 38  1  0
 19 39  1  0
 20 40  1  0
 21 41  1  0
 22 42  1  0
 23 43  1  0
 24 44  1  0
 24 45  1  0
 25 46  1  0
 25 47  1  0
M  END
>  <meeko>  (1) 
{"is_sidechain": false}

>  <smiles>  (1) 
O=C(O)N1CCN(C(=O)c2ccc(CCc3ccccc3)cc2)CC1

>  <vina_score>  (1) 
-8.320

>  <job_id>  (1) 
5b16eae144f70217

$$$$
