
     RDKit          3D

 40 42  0  0  0  0  0  0  0  0999 V2000
   60.4680   82.8610   29.4640 O   0  0  0  0  0  0  0  0  0  0  0  0
   60.3580   81.8460   30.1460 C   0  0  0  0  0  0  0  0  0  0  0  0
   61.2100   81.4840   31.1650 N   0  0  0  0  0  0  0  0  0  0  0  0
   62.2560   82.2480   31.7250 C   0  0  0  0  0  0  0  0  0  0  0  0
   63.5220   82.1330   31.1350 C   0  0  0  0  0  0  0  0  0  0  0  0
   64.6110   82.8470   31.6410 C   0  0  0  0  0  0  0  0  0  0  0  0
   64.4460   83.6780   32.7450 C   0  0  0  0  0  0  0  0  0  0  0  0
   63.1940   83.7910   33.3440 C   0  0  0  0  0  0  0  0  0  0  0  0
   62.1030   83.0770   32.8380 C   0  0  0  0  0  0  0  0  0  0  0  0
   59.3300   80.9380   29.9200 N   0  0  0  0  0  0  0  0  0  0  0  0
   58.4480   81.1600   28.7710 C   0  0  0  0  0  0  0  0  0  0  0  0
   57.8110   79.8610   28.2460 C   0  0  0  0  0  0  0  0  0  0  0  0
   57.1200   79.1050   29.3120 N   0  0  0  0  0  0  0  0  0  0  0  0
   56.0310   78.3050   28.9990 C   0  0  0  0  0  0  0  0  0  0  0  0
   54.9880   78.7510   28.1670 C   0  0  0  0  0  0  0  0  0  0  0  0
   53.8880   77.9410   27.8610 C   0  0  0  0  0  0  0  0  0  0  0  0
   53.8100   76.6640   28.3920 C   0  0  0  0  0  0  0  0  0  0  0  0
   52.7580   75.8880   28.1030 F   0  0  0  0  0  0  0  0  0  0  0  0
   54.8100   76.1860   29.2210 C   0  0  0  0  0  0  0  0  0  0  0  0
   55.9070   77.0030   29.5200 C   0  0  0  0  0  0  0  0  0  0  0  0
   57.4340   79.4750   30.7010 C   0  0  0  0  0  0  0  0  0  0  0  0
   58.9140   79.8810   30.8500 C   0  0  0  0  0  0  0  0  0  0  0  0
   61.2080   80.5050   31.4030 H   0  0  0  0  0  0  0  0  0  0  0  0
   63.6596   81.4741   30.2650 H   0  0  0  0  0  0  0  0  0  0  0  0
   65.5990   82.7523   31.1667 H   0  0  0  0  0  0  0  0  0  0  0  0
   65.3014   84.2435   33.1430 H   0  0  0  0  0  0  0  0  0  0  0  0
   63.0625   84.4446   34.2189 H   0  0  0  0  0  0  0  0  0  0  0  0
   61.1184   83.1691   33.3198 H   0  0  0  0  0  0  0  0  0  0  0  0
   57.6445   81.8480   29.0729 H   0  0  0  0  0  0  0  0  0  0  0  0
   59.0615   81.5786   27.9596 H   0  0  0  0  0  0  0  0  0  0  0  0
   57.0815   80.1159   27.4632 H   0  0  0  0  0  0  0  0  0  0  0  0
   58.6178   79.2258   27.8514 H   0  0  0  0  0  0  0  0  0  0  0  0
   55.0382   79.7655   27.7447 H   0  0  0  0  0  0  0  0  0  0  0  0
   53.0905   78.3163   27.2029 H   0  0  0  0  0  0  0  0  0  0  0  0
   54.7434   75.1718   29.6418 H   0  0  0  0  0  0  0  0  0  0  0  0
   56.6957   76.6159   30.1819 H   0  0  0  0  0  0  0  0  0  0  0  0
   56.7981   80.3216   30.9991 H   0  0  0  0  0  0  0  0  0  0  0  0
   57.2461   78.6028   31.3443 H   0  0  0  0  0  0  0  0  0  0  0  0
   59.0746   80.2390   31.8776 H   0  0  0  0  0  0  0  0  0  0  0  0
   59.5175   78.9912   30.6178 H   0  0  0  0  0  0  0  0  0  0  0  0
  1  2  2  0
  2  3  1  0
  3  4  1  0
  4  5  2  0
  5  6  1  0
  6  7  2  0
  7  8  1  0
  8  9  2  0
  2 10  1  0
 10 11  1  0
 11 12  1  0
 12 13  1  0
 13 14  1  0
 14 15  1  0
 15 16  2  0
 16 17  1  0
 17 18  1  0
 17 19  2  0
 19 20  1  0
 13 21  1  0
 21 22  1  0
  9  4  1  0
 22 10  1  0
 20 14  2  0
  3 23  1  0
  5 24  1  0
  6 25  1  0
  7 26  1  0
  8 27  1  0
  9 28  1  0
 11 29  1  0
 11 30  1  0
 12 31  1  0
 12 32  1  0
 15 33  1  0
 16 34  1  0
 19 35  1  0
 20 36  1  0
 21 37  1  0
 21 38  1  0
 22 39  1  0
 22 40  1  0
M  END
>  <meeko>  (1) 
{"is_sidechain": false}

>  <smiles>  (1) 
O=C(Nc1ccccc1)N1CCN(c2ccc(F)cc2)CC1

>  <vina_score>  (1) 
-7.308

>  <job_id>  (1) 
5bd21c7bbe6fa014

$$$$
