
     RDKit          3D

 60 62  0  0  0  0  0  0  0  0999 V2000
   53.5760   81.4090   27.2700 C   0  0  0  0  0  0  0  0  0  0  0  0
   53.9450   80.2180   26.3790 C   0  0  1  0  0  0  0  0  0  0  0  0
   53.4610   79.0560   27.0800 O   0  0  0  0  0  0  0  0  0  0  0  0
   54.3780   78.3250   27.7990 C   0  0  0  0  0  0  0  0  0  0  0  0
   55.5930   78.8520   28.0470 N   0  0  0  0  0  0  0  0  0  0  0  0
   56.4720   78.0980   28.7230 C   0  0  0  0  0  0  0  0  0  0  0  0
   57.7050   78.6980   28.9560 N   0  0  0  0  0  0  0  0  0  0  0  0
   58.1160   79.8470   29.6370 C   0  0  0  0  0  0  0  0  0  0  0  0
   58.5900   81.0010   29.0100 C   0  0  0  0  0  0  0  0  0  0  0  0
   58.9870   82.1240   29.7530 C   0  0  0  0  0  0  0  0  0  0  0  0
   58.9210   82.1300   31.1520 C   0  0  0  0  0  0  0  0  0  0  0  0
   59.3380   83.3080   31.9300 C   0  0  0  0  0  0  0  0  0  0  0  0
   59.3410   84.5910   31.3530 C   0  0  0  0  0  0  0  0  0  0  0  0
   59.7400   85.7120   32.0860 C   0  0  0  0  0  0  0  0  0  0  0  0
   60.1500   85.5550   33.4100 C   0  0  0  0  0  0  0  0  0  0  0  0
   60.6430   86.9690   34.3580 S   0  0  0  0  0  0  0  0  0  0  0  0
   60.8710   88.0740   33.4350 O   0  0  0  0  0  0  0  0  0  0  0  0
   61.7050   86.5670   35.2710 O   0  0  0  0  0  0  0  0  0  0  0  0
   58.8850   87.4960   35.5950 S   0  0  0  0  0  0  0  0  0  0  0  0
   57.4650   86.9820   34.7830 N   0  0  0  0  0  0  0  0  0  0  0  0
   58.8050   88.9430   35.6460 O   0  0  0  0  0  0  0  0  0  0  0  0
   58.9540   86.7010   36.8070 O   0  0  0  0  0  0  0  0  0  0  0  0
   60.1420   84.2960   34.0130 C   0  0  0  0  0  0  0  0  0  0  0  0
   59.7430   83.1820   33.2710 C   0  0  0  0  0  0  0  0  0  0  0  0
   58.4440   80.9760   31.7840 C   0  0  0  0  0  0  0  0  0  0  0  0
   58.0490   79.8570   31.0380 C   0  0  0  0  0  0  0  0  0  0  0  0
   56.1890   76.8590   29.1430 N   0  0  0  0  0  0  0  0  0  0  0  0
   54.9670   76.3670   28.8660 C   0  0  0  0  0  0  0  0  0  0  0  0
   54.0030   77.0640   28.1830 C   0  0  0  0  0  0  0  0  0  0  0  0
   52.6690   76.4940   27.8830 C   0  0  0  0  0  0  0  0  0  0  0  0
   51.6410   77.2210   28.3990 F   0  0  0  0  0  0  0  0  0  0  0  0
   52.5090   75.2370   28.3950 F   0  0  0  0  0  0  0  0  0  0  0  0
   52.4250   76.3670   26.5510 F   0  0  0  0  0  0  0  0  0  0  0  0
   53.3020   80.2960   24.9590 C   0  0  0  0  0  0  0  0  0  0  0  0
   53.3100   78.9270   24.2680 C   0  0  0  0  0  0  0  0  0  0  0  0
   51.8620   80.8240   25.0150 C   0  0  0  0  0  0  0  0  0  0  0  0
   54.0600   81.1960   24.1360 O   0  0  0  0  0  0  0  0  0  0  0  0
   53.6662   81.1180   28.3270 H   0  0  0  0  0  0  0  0  0  0  0  0
   54.2564   82.2477   27.0613 H   0  0  0  0  0  0  0  0  0  0  0  0
   52.5406   81.7161   27.0613 H   0  0  0  0  0  0  0  0  0  0  0  0
   55.0310   80.1953   26.2053 H   0  0  0  0  0  0  0  0  0  0  0  0
   58.4260   78.1540   28.5070 H   0  0  0  0  0  0  0  0  0  0  0  0
   58.6536   81.0308   27.9122 H   0  0  0  0  0  0  0  0  0  0  0  0
   59.3569   83.0161   29.2264 H   0  0  0  0  0  0  0  0  0  0  0  0
   59.0238   84.7140   30.3069 H   0  0  0  0  0  0  0  0  0  0  0  0
   59.7308   86.7097   31.6228 H   0  0  0  0  0  0  0  0  0  0  0  0
   56.9490   86.3040   35.3460 H   0  0  0  0  0  0  0  0  0  0  0  0
   57.6850   86.6590   33.8390 H   0  0  0  0  0  0  0  0  0  0  0  0
   60.4473   84.1823   35.0636 H   0  0  0  0  0  0  0  0  0  0  0  0
   59.7456   82.1887   33.7437 H   0  0  0  0  0  0  0  0  0  0  0  0
   58.3781   80.9467   32.8816 H   0  0  0  0  0  0  0  0  0  0  0  0
   57.6775   78.9652   31.5640 H   0  0  0  0  0  0  0  0  0  0  0  0
   54.7280   75.3487   29.2065 H   0  0  0  0  0  0  0  0  0  0  0  0
   53.3146   78.1324   25.0286 H   0  0  0  0  0  0  0  0  0  0  0  0
   52.4124   78.8281   23.6399 H   0  0  0  0  0  0  0  0  0  0  0  0
   54.2087   78.8386   23.6399 H   0  0  0  0  0  0  0  0  0  0  0  0
   51.5535   80.9371   26.0648 H   0  0  0  0  0  0  0  0  0  0  0  0
   51.8094   81.7999   24.5102 H   0  0  0  0  0  0  0  0  0  0  0  0
   51.1910   80.1134   24.5102 H   0  0  0  0  0  0  0  0  0  0  0  0
   53.8620   82.1060   24.4160 H   0  0  0  0  0  0  0  0  0  0  0  0
  1  2  1  0
  2  3  1  0
  3  4  1  0
  4  5  2  0
  5  6  1  0
  6  7  1  0
  7  8  1  0
  8  9  1  0
  9 10  2  0
 10 11  1  0
 11 12  1  0
 12 13  1  0
 13 14  2  0
 14 15  1  0
 15 16  1  0
 16 17  2  0
 16 18  2  0
 16 19  1  0
 19 20  1  0
 19 21  2  0
 19 22  2  0
 15 23  2  0
 23 24  1  0
 11 25  2  0
 25 26  1  0
  6 27  2  0
 27 28  1  0
 28 29  2  0
 29 30  1  0
 30 31  1  0
 30 32  1  0
 30 33  1  0
  2 34  1  0
 34 35  1  0
 34 36  1  0
 34 37  1  0
 29  4  1  0
 26  8  2  0
 24 12  2  0
  1 38  1  0
  1 39  1  0
  1 40  1  0
  2 41  1  6
  7 42  1  0
  9 43  1  0
 10 44  1  0
 13 45  1  0
 14 46  1  0
 20 47  1  0
 20 48  1  0
 23 49  1  0
 24 50  1  0
 25 51  1  0
 26 52  1  0
 28 53  1  0
 35 54  1  0
 35 55  1  0
 35 56  1  0
 36 57  1  0
 36 58  1  0
 36 59  1  0
 37 60  1  0
M  END
>  <meeko>  (1) 
{"is_sidechain": false}

>  <smiles>  (1) 
C[C@@H](Oc1nc(Nc2ccc(-c3ccc(S(=O)(=O)S(N)(=O)=O)cc3)cc2)ncc1C(F)(F)F)C(C)(C)O

>  <vina_score>  (1) 
-8.211

>  <job_id>  (1) 
5c1b25b1ff3ace6e

$$$$
