
     RDKit          3D

 66 68  0  0  0  0  0  0  0  0999 V2000
   55.1860   76.4580   29.6280 C   0  0  0  0  0  0  0  0  0  0  0  0
   54.4590   77.6020   28.9260 C   0  0  0  0  0  0  0  0  0  0  0  0
   55.2910   78.6980   28.4020 N   0  0  0  0  0  0  0  0  0  0  0  0
   54.8470   79.2010   27.0860 C   0  0  0  0  0  0  0  0  0  0  0  0
   53.3370   79.0140   26.7790 C   0  0  0  0  0  0  0  0  0  0  0  0
   53.0270   78.2080   25.5880 N   0  0  0  0  0  0  0  0  0  0  0  0
   53.6810   78.7170   24.3890 C   0  0  0  0  0  0  0  0  0  0  0  0
   56.7270   78.3720   28.3590 C   0  0  0  0  0  0  0  0  0  0  0  0
   57.5970   79.3400   29.1360 C   0  0  0  0  0  0  0  0  0  0  0  0
   58.5580   80.1220   28.4860 C   0  0  0  0  0  0  0  0  0  0  0  0
   59.3490   81.0180   29.2120 C   0  0  0  0  0  0  0  0  0  0  0  0
   59.1900   81.1560   30.5970 C   0  0  0  0  0  0  0  0  0  0  0  0
   60.0380   82.0780   31.2490 N   0  0  0  0  0  0  0  0  0  0  0  0
   59.9390   83.4570   31.2400 C   0  0  0  0  0  0  0  0  0  0  0  0
   59.0940   84.1130   30.6360 O   0  0  0  0  0  0  0  0  0  0  0  0
   60.9650   84.1860   32.1130 C   0  0  0  0  0  0  0  0  0  0  0  0
   61.8020   83.1840   32.9200 C   0  0  0  0  0  0  0  0  0  0  0  0
   63.1290   82.8540   32.2520 C   0  0  0  0  0  0  0  0  0  0  0  0
   63.9150   84.0750   31.9880 N   0  0  0  0  0  0  0  0  0  0  0  0
   65.3440   83.8870   31.1010 S   0  0  0  0  0  0  0  0  0  0  0  0
   66.4800   84.1030   31.9670 O   0  0  0  0  0  0  0  0  0  0  0  0
   65.2130   82.7080   30.2720 O   0  0  0  0  0  0  0  0  0  0  0  0
   65.4200   85.1740   29.9730 C   0  0  0  0  0  0  0  0  0  0  0  0
   65.9940   86.4320   30.1970 C   0  0  0  0  0  0  0  0  0  0  0  0
   65.8350   87.2460   29.1470 N   0  0  0  0  0  0  0  0  0  0  0  0
   65.2470   86.4630   28.2200 N   0  0  0  0  0  0  0  0  0  0  0  0
   65.0070   86.9820   26.8940 C   0  0  0  0  0  0  0  0  0  0  0  0
   64.9270   85.2240   28.6860 C   0  0  0  0  0  0  0  0  0  0  0  0
   63.2000   85.3640   31.9440 C   0  0  0  0  0  0  0  0  0  0  0  0
   61.8120   85.2070   31.3430 C   0  0  0  0  0  0  0  0  0  0  0  0
   58.2320   80.3790   31.2450 C   0  0  0  0  0  0  0  0  0  0  0  0
   57.4440   79.4780   30.5210 C   0  0  0  0  0  0  0  0  0  0  0  0
   55.1048   76.5857   30.7175 H   0  0  0  0  0  0  0  0  0  0  0  0
   54.7305   75.5002   29.3362 H   0  0  0  0  0  0  0  0  0  0  0  0
   56.2466   76.4637   29.3362 H   0  0  0  0  0  0  0  0  0  0  0  0
   53.9032   77.1727   28.0794 H   0  0  0  0  0  0  0  0  0  0  0  0
   53.8328   78.0638   29.7036 H   0  0  0  0  0  0  0  0  0  0  0  0
   55.0725   80.2766   27.0397 H   0  0  0  0  0  0  0  0  0  0  0  0
   55.3860   78.6048   26.3350 H   0  0  0  0  0  0  0  0  0  0  0  0
   52.8725   78.5260   27.6485 H   0  0  0  0  0  0  0  0  0  0  0  0
   52.9443   80.0206   26.5725 H   0  0  0  0  0  0  0  0  0  0  0  0
   52.0180   78.2310   25.4420 H   0  0  0  0  0  0  0  0  0  0  0  0
   54.5188   79.3690   24.6771 H   0  0  0  0  0  0  0  0  0  0  0  0
   54.0605   77.8743   23.7925 H   0  0  0  0  0  0  0  0  0  0  0  0
   52.9573   79.2918   23.7925 H   0  0  0  0  0  0  0  0  0  0  0  0
   56.8670   77.3653   28.7797 H   0  0  0  0  0  0  0  0  0  0  0  0
   57.0387   78.4350   27.3060 H   0  0  0  0  0  0  0  0  0  0  0  0
   58.6921   80.0315   27.3980 H   0  0  0  0  0  0  0  0  0  0  0  0
   60.1053   81.6218   28.6892 H   0  0  0  0  0  0  0  0  0  0  0  0
   60.8510   81.6650   31.6810 H   0  0  0  0  0  0  0  0  0  0  0  0
   60.4009   84.7968   32.8333 H   0  0  0  0  0  0  0  0  0  0  0  0
   62.0048   83.6136   33.9121 H   0  0  0  0  0  0  0  0  0  0  0  0
   61.2247   82.2503   32.9909 H   0  0  0  0  0  0  0  0  0  0  0  0
   63.7075   82.1913   32.9124 H   0  0  0  0  0  0  0  0  0  0  0  0
   62.9207   82.3608   31.2911 H   0  0  0  0  0  0  0  0  0  0  0  0
   66.5129   86.7164   31.1243 H   0  0  0  0  0  0  0  0  0  0  0  0
   64.5464   87.9782   26.9680 H   0  0  0  0  0  0  0  0  0  0  0  0
   65.9611   87.0586   26.3520 H   0  0  0  0  0  0  0  0  0  0  0  0
   64.3307   86.3046   26.3520 H   0  0  0  0  0  0  0  0  0  0  0  0
   64.3883   84.4297   28.1486 H   0  0  0  0  0  0  0  0  0  0  0  0
   63.1049   85.7559   32.9674 H   0  0  0  0  0  0  0  0  0  0  0  0
   63.7746   86.0578   31.3128 H   0  0  0  0  0  0  0  0  0  0  0  0
   61.3023   86.1815   31.3669 H   0  0  0  0  0  0  0  0  0  0  0  0
   61.9274   84.8437   30.3111 H   0  0  0  0  0  0  0  0  0  0  0  0
   58.0945   80.4746   32.3322 H   0  0  0  0  0  0  0  0  0  0  0  0
   56.6937   78.8694   31.0471 H   0  0  0  0  0  0  0  0  0  0  0  0
  1  2  1  0
  2  3  1  0
  3  4  1  0
  4  5  1  0
  5  6  1  0
  6  7  1  0
  3  8  1  0
  8  9  1  0
  9 10  1  0
 10 11  2  0
 11 12  1  0
 12 13  1  0
 13 14  1  0
 14 15  2  0
 14 16  1  0
 16 17  1  0
 17 18  1  0
 18 19  1  0
 19 20  1  0
 20 21  2  0
 20 22  2  0
 20 23  1  0
 23 24  1  0
 24 25  2  0
 25 26  1  0
 26 27  1  0
 26 28  1  0
 19 29  1  0
 29 30  1  0
 12 31  2  0
 31 32  1  0
 32  9  2  0
 30 16  1  0
 28 23  2  0
  1 33  1  0
  1 34  1  0
  1 35  1  0
  2 36  1  0
  2 37  1  0
  4 38  1  0
  4 39  1  0
  5 40  1  0
  5 41  1  0
  6 42  1  0
  7 43  1  0
  7 44  1  0
  7 45  1  0
  8 46  1  0
  8 47  1  0
 10 48  1  0
 11 49  1  0
 13 50  1  0
 16 51  1  0
 17 52  1  0
 17 53  1  0
 18 54  1  0
 18 55  1  0
 24 56  1  0
 27 57  1  0
 27 58  1  0
 27 59  1  0
 28 60  1  0
 29 61  1  0
 29 62  1  0
 30 63  1  0
 30 64  1  0
 31 65  1  0
 32 66  1  0
M  END
>  <meeko>  (1) 
{"is_sidechain": false}

>  <smiles>  (1) 
CCN(CCNC)Cc1ccc(NC(=O)C2CCN(S(=O)(=O)c3cnn(C)c3)CC2)cc1

>  <vina_score>  (1) 
-6.944

>  <job_id>  (1) 
5c46ab53e2d84a84

$$$$
