
     RDKit          3D

 66 68  0  0  0  0  0  0  0  0999 V2000
   53.2610   83.5790   25.1200 C   0  0  0  0  0  0  0  0  0  0  0  0
   53.8190   82.1650   24.9120 C   0  0  0  0  0  0  0  0  0  0  0  0
   54.2700   81.5610   26.2640 C   0  0  1  0  0  0  0  0  0  0  0  0
   53.3100   81.8580   27.4180 C   0  0  0  0  0  0  0  0  0  0  0  0
   54.3040   80.1250   26.0950 O   0  0  0  0  0  0  0  0  0  0  0  0
   55.0310   79.4120   27.0260 C   0  0  0  0  0  0  0  0  0  0  0  0
   56.2700   79.8260   27.3470 N   0  0  0  0  0  0  0  0  0  0  0  0
   56.9470   79.1150   28.2610 C   0  0  0  0  0  0  0  0  0  0  0  0
   58.2220   79.5920   28.5470 N   0  0  0  0  0  0  0  0  0  0  0  0
   58.7850   80.2760   29.6290 C   0  0  0  0  0  0  0  0  0  0  0  0
   58.5510   79.9480   30.9690 C   0  0  0  0  0  0  0  0  0  0  0  0
   59.1370   80.6770   32.0110 C   0  0  0  0  0  0  0  0  0  0  0  0
   59.9630   81.7600   31.7190 C   0  0  0  0  0  0  0  0  0  0  0  0
   60.7130   82.6680   33.0590 S   0  0  0  0  0  0  0  0  0  0  0  0
   59.7920   82.5120   34.2920 N   0  0  0  0  0  0  0  0  0  0  0  0
   61.0640   83.9650   32.5150 O   0  0  0  0  0  0  0  0  0  0  0  0
   62.2530   81.8050   33.4070 C   0  0  2  0  0  0  0  0  0  0  0  0
   62.4420   81.5060   34.8950 C   0  0  0  0  0  0  0  0  0  0  0  0
   63.4100   82.6270   32.8040 C   0  0  2  0  0  0  0  0  0  0  0  0
   63.8330   82.1040   31.4340 C   0  0  0  0  0  0  0  0  0  0  0  0
   64.5660   82.5930   33.6450 O   0  0  0  0  0  0  0  0  0  0  0  0
   60.2250   82.1030   30.3930 C   0  0  0  0  0  0  0  0  0  0  0  0
   59.6320   81.3670   29.3620 C   0  0  0  0  0  0  0  0  0  0  0  0
   56.4370   78.0290   28.8550 N   0  0  0  0  0  0  0  0  0  0  0  0
   55.1920   77.6510   28.5050 C   0  0  0  0  0  0  0  0  0  0  0  0
   54.4280   78.3140   27.5790 C   0  0  0  0  0  0  0  0  0  0  0  0
   53.0620   77.8760   27.2100 C   0  0  0  0  0  0  0  0  0  0  0  0
   52.9910   77.3740   25.9430 F   0  0  0  0  0  0  0  0  0  0  0  0
   52.5770   76.8920   28.0150 F   0  0  0  0  0  0  0  0  0  0  0  0
   52.1480   78.8850   27.2470 F   0  0  0  0  0  0  0  0  0  0  0  0
   52.6070   81.1040   24.1050 S   0  0  0  0  0  0  0  0  0  0  0  0
   53.3630   79.8940   23.5220 N   0  0  0  0  0  0  0  0  0  0  0  0
   51.4640   80.9840   24.9890 O   0  0  0  0  0  0  0  0  0  0  0  0
   51.9820   82.0910   22.6980 C   0  0  0  0  0  0  0  0  0  0  0  0
   52.5610   81.7320   21.3560 C   0  0  0  0  0  0  0  0  0  0  0  0
   51.1410   81.3570   21.6900 C   0  0  0  0  0  0  0  0  0  0  0  0
   53.1793   83.7861   26.1972 H   0  0  0  0  0  0  0  0  0  0  0  0
   53.9373   84.3120   24.6560 H   0  0  0  0  0  0  0  0  0  0  0  0
   52.2664   83.6526   24.6560 H   0  0  0  0  0  0  0  0  0  0  0  0
   54.6960   82.2327   24.2515 H   0  0  0  0  0  0  0  0  0  0  0  0
   55.2431   82.0051   26.5207 H   0  0  0  0  0  0  0  0  0  0  0  0
   53.8271   81.6980   28.3756 H   0  0  0  0  0  0  0  0  0  0  0  0
   52.9718   82.9028   27.3540 H   0  0  0  0  0  0  0  0  0  0  0  0
   52.4409   81.1867   27.3540 H   0  0  0  0  0  0  0  0  0  0  0  0
   58.8420   79.3440   27.7900 H   0  0  0  0  0  0  0  0  0  0  0  0
   57.8930   79.0998   31.2088 H   0  0  0  0  0  0  0  0  0  0  0  0
   58.9457   80.3954   33.0570 H   0  0  0  0  0  0  0  0  0  0  0  0
   58.9070   83.0030   34.1300 H   0  0  0  0  0  0  0  0  0  0  0  0
   62.2311   80.8117   32.9349 H   0  0  0  0  0  0  0  0  0  0  0  0
   61.9482   82.2872   35.4916 H   0  0  0  0  0  0  0  0  0  0  0  0
   61.9977   80.5280   35.1318 H   0  0  0  0  0  0  0  0  0  0  0  0
   63.5161   81.4878   35.1318 H   0  0  0  0  0  0  0  0  0  0  0  0
   63.0272   83.6540   32.7109 H   0  0  0  0  0  0  0  0  0  0  0  0
   64.5200   81.2545   31.5619 H   0  0  0  0  0  0  0  0  0  0  0  0
   62.9436   81.7755   30.8763 H   0  0  0  0  0  0  0  0  0  0  0  0
   64.3402   82.9051   30.8763 H   0  0  0  0  0  0  0  0  0  0  0  0
   65.3500   82.6770   33.0590 H   0  0  0  0  0  0  0  0  0  0  0  0
   60.8926   82.9455   30.1597 H   0  0  0  0  0  0  0  0  0  0  0  0
   59.8327   81.6479   28.3176 H   0  0  0  0  0  0  0  0  0  0  0  0
   54.7644   76.7606   28.9892 H   0  0  0  0  0  0  0  0  0  0  0  0
   52.7110   79.2160   23.1260 H   0  0  0  0  0  0  0  0  0  0  0  0
   51.8596   83.0176   23.2780 H   0  0  0  0  0  0  0  0  0  0  0  0
   52.7623   82.5197   20.6151 H   0  0  0  0  0  0  0  0  0  0  0  0
   53.4509   81.1833   21.0140 H   0  0  0  0  0  0  0  0  0  0  0  0
   50.3050   81.8707   21.1928 H   0  0  0  0  0  0  0  0  0  0  0  0
   50.5639   80.4205   21.6928 H   0  0  0  0  0  0  0  0  0  0  0  0
  1  2  1  0
  2  3  1  0
  3  4  1  0
  3  5  1  0
  5  6  1  0
  6  7  2  0
  7  8  1  0
  8  9  1  0
  9 10  1  0
 10 11  1  0
 11 12  2  0
 12 13  1  0
 13 14  1  0
 14 15  2  0
 14 16  2  0
 14 17  1  0
 17 18  1  0
 17 19  1  0
 19 20  1  0
 19 21  1  0
 13 22  2  0
 22 23  1  0
  8 24  2  0
 24 25  1  0
 25 26  2  0
 26 27  1  0
 27 28  1  0
 27 29  1  0
 27 30  1  0
  2 31  1  0
 31 32  2  0
 31 33  2  0
 31 34  1  0
 34 35  1  0
 35 36  1  0
 26  6  1  0
 36 34  1  0
 23 10  2  0
  1 37  1  0
  1 38  1  0
  1 39  1  0
  2 40  1  0
  3 41  1  1
  4 42  1  0
  4 43  1  0
  4 44  1  0
  9 45  1  0
 11 46  1  0
 12 47  1  0
 15 48  1  0
 17 49  1  6
 18 50  1  0
 18 51  1  0
 18 52  1  0
 19 53  1  6
 20 54  1  0
 20 55  1  0
 20 56  1  0
 21 57  1  0
 22 58  1  0
 23 59  1  0
 25 60  1  0
 32 61  1  0
 34 62  1  0
 35 63  1  0
 35 64  1  0
 36 65  1  0
 36 66  1  0
M  END
>  <meeko>  (1) 
{"is_sidechain": false}

>  <smiles>  (1) 
CC([C@@H](C)Oc1nc(Nc2ccc(S(=N)(=O)[C@H](C)[C@H](C)O)cc2)ncc1C(F)(F)F)S(=N)(=O)C1CC1

>  <vina_score>  (1) 
-8.873

>  <job_id>  (1) 
5c75fcdaaa2f3607

$$$$
