
     RDKit          3D

 51 53  0  0  0  0  0  0  0  0999 V2000
   52.1850   75.4160   26.7510 C   0  0  0  0  0  0  0  0  0  0  0  0
   52.1930   76.2540   28.0200 C   0  0  0  0  0  0  0  0  0  0  0  0
   53.5340   76.9050   28.2530 C   0  0  0  0  0  0  0  0  0  0  0  0
   53.8420   78.1290   27.6460 C   0  0  0  0  0  0  0  0  0  0  0  0
   55.0870   78.7270   27.8520 C   0  0  0  0  0  0  0  0  0  0  0  0
   56.0440   78.0970   28.6550 C   0  0  0  0  0  0  0  0  0  0  0  0
   57.3620   78.7670   28.8480 C   0  0  0  0  0  0  0  0  0  0  0  0
   58.2420   78.5660   28.0200 O   0  0  0  0  0  0  0  0  0  0  0  0
   57.4590   79.5320   29.9970 N   0  0  0  0  0  0  0  0  0  0  0  0
   58.5600   80.3040   30.4180 C   0  0  0  0  0  0  0  0  0  0  0  0
   59.2990   81.1350   29.5850 C   0  0  0  0  0  0  0  0  0  0  0  0
   60.3800   81.8740   30.0910 C   0  0  0  0  0  0  0  0  0  0  0  0
   60.7660   81.8150   31.4380 C   0  0  0  0  0  0  0  0  0  0  0  0
   61.8340   82.5540   31.9230 N   0  0  0  0  0  0  0  0  0  0  0  0
   62.9280   82.9660   31.0200 C   0  0  0  0  0  0  0  0  0  0  0  0
   64.2630   83.1310   31.7670 C   0  0  0  0  0  0  0  0  0  0  0  0
   64.1660   84.0300   32.9190 N   0  0  0  0  0  0  0  0  0  0  0  0
   65.2580   84.8040   33.2660 C   0  0  0  0  0  0  0  0  0  0  0  0
   65.0790   85.7610   34.4180 C   0  0  0  0  0  0  0  0  0  0  0  0
   66.3390   84.7280   32.6820 O   0  0  0  0  0  0  0  0  0  0  0  0
   62.8800   84.0410   33.6240 C   0  0  0  0  0  0  0  0  0  0  0  0
   62.0280   82.7830   33.3630 C   0  0  0  0  0  0  0  0  0  0  0  0
   59.9990   80.9780   32.2610 C   0  0  0  0  0  0  0  0  0  0  0  0
   58.9170   80.2340   31.7650 C   0  0  0  0  0  0  0  0  0  0  0  0
   55.7390   76.8800   29.2750 C   0  0  0  0  0  0  0  0  0  0  0  0
   54.4910   76.2850   29.0680 C   0  0  0  0  0  0  0  0  0  0  0  0
   52.1748   74.3486   27.0165 H   0  0  0  0  0  0  0  0  0  0  0  0
   51.2891   75.6552   26.1593 H   0  0  0  0  0  0  0  0  0  0  0  0
   53.0853   75.6381   26.1593 H   0  0  0  0  0  0  0  0  0  0  0  0
   51.4266   77.0383   27.9336 H   0  0  0  0  0  0  0  0  0  0  0  0
   51.9835   75.5886   28.8705 H   0  0  0  0  0  0  0  0  0  0  0  0
   53.0984   78.6225   27.0029 H   0  0  0  0  0  0  0  0  0  0  0  0
   55.3157   79.6950   27.3822 H   0  0  0  0  0  0  0  0  0  0  0  0
   56.6850   79.4830   30.6460 H   0  0  0  0  0  0  0  0  0  0  0  0
   59.0348   81.2145   28.5202 H   0  0  0  0  0  0  0  0  0  0  0  0
   60.9450   82.5231   29.4059 H   0  0  0  0  0  0  0  0  0  0  0  0
   63.0506   82.2011   30.2391 H   0  0  0  0  0  0  0  0  0  0  0  0
   62.6601   83.9403   30.5853 H   0  0  0  0  0  0  0  0  0  0  0  0
   64.5916   82.1425   32.1203 H   0  0  0  0  0  0  0  0  0  0  0  0
   64.9819   83.5747   31.0626 H   0  0  0  0  0  0  0  0  0  0  0  0
   65.1811   85.2150   35.3675 H   0  0  0  0  0  0  0  0  0  0  0  0
   65.8455   86.5481   34.3633 H   0  0  0  0  0  0  0  0  0  0  0  0
   64.0798   86.2178   34.3633 H   0  0  0  0  0  0  0  0  0  0  0  0
   63.0751   84.1120   34.7042 H   0  0  0  0  0  0  0  0  0  0  0  0
   62.3103   84.9031   33.2469 H   0  0  0  0  0  0  0  0  0  0  0  0
   62.5362   81.9101   33.7987 H   0  0  0  0  0  0  0  0  0  0  0  0
   61.0411   82.9319   33.8254 H   0  0  0  0  0  0  0  0  0  0  0  0
   60.2531   80.9021   33.3285 H   0  0  0  0  0  0  0  0  0  0  0  0
   58.3437   79.5881   32.4463 H   0  0  0  0  0  0  0  0  0  0  0  0
   56.4806   76.3920   29.9246 H   0  0  0  0  0  0  0  0  0  0  0  0
   54.2584   75.3231   29.5483 H   0  0  0  0  0  0  0  0  0  0  0  0
  1  2  1  0
  2  3  1  0
  3  4  1  0
  4  5  2  0
  5  6  1  0
  6  7  1  0
  7  8  2  0
  7  9  1  0
  9 10  1  0
 10 11  1  0
 11 12  2  0
 12 13  1  0
 13 14  1  0
 14 15  1  0
 15 16  1  0
 16 17  1  0
 17 18  1  0
 18 19  1  0
 18 20  2  0
 17 21  1  0
 21 22  1  0
 13 23  2  0
 23 24  1  0
  6 25  2  0
 25 26  1  0
 26  3  2  0
 24 10  2  0
 22 14  1  0
  1 27  1  0
  1 28  1  0
  1 29  1  0
  2 30  1  0
  2 31  1  0
  4 32  1  0
  5 33  1  0
  9 34  1  0
 11 35  1  0
 12 36  1  0
 15 37  1  0
 15 38  1  0
 16 39  1  0
 16 40  1  0
 19 41  1  0
 19 42  1  0
 19 43  1  0
 21 44  1  0
 21 45  1  0
 22 46  1  0
 22 47  1  0
 23 48  1  0
 24 49  1  0
 25 50  1  0
 26 51  1  0
M  END
>  <meeko>  (1) 
{"is_sidechain": false}

>  <smiles>  (1) 
CCc1ccc(C(=O)Nc2ccc(N3CCN(C(C)=O)CC3)cc2)cc1

>  <vina_score>  (1) 
-8.461

>  <job_id>  (1) 
5ccd9dc60df1c422

$$$$
