
     RDKit          3D

 43 44  0  0  0  0  0  0  0  0999 V2000
   51.4810   75.0210   25.7520 C   0  0  0  0  0  0  0  0  0  0  0  0
   52.5610   75.7630   26.3530 N   0  0  0  0  0  0  0  0  0  0  0  0
   52.4520   76.2330   27.6470 C   0  0  0  0  0  0  0  0  0  0  0  0
   51.4390   76.1120   28.3270 O   0  0  0  0  0  0  0  0  0  0  0  0
   53.6640   76.8770   28.2240 C   0  0  0  0  0  0  0  0  0  0  0  0
   54.5200   76.2080   29.1040 C   0  0  0  0  0  0  0  0  0  0  0  0
   55.6500   76.8560   29.6210 C   0  0  0  0  0  0  0  0  0  0  0  0
   55.9450   78.1720   29.2580 C   0  0  0  0  0  0  0  0  0  0  0  0
   57.0610   78.8940   29.7340 N   0  0  0  0  0  0  0  0  0  0  0  0
   58.0770   79.4680   28.9880 C   0  0  0  0  0  0  0  0  0  0  0  0
   58.1670   79.4570   27.7660 O   0  0  0  0  0  0  0  0  0  0  0  0
   59.1240   80.1600   29.8650 C   0  0  0  0  0  0  0  0  0  0  0  0
   58.6580   80.2340   31.3240 C   0  0  0  0  0  0  0  0  0  0  0  0
   59.6760   80.9520   32.2000 C   0  0  0  0  0  0  0  0  0  0  0  0
   60.0500   82.2580   31.6570 N   0  0  0  0  0  0  0  0  0  0  0  0
   60.5400   83.2900   32.4590 C   0  0  0  0  0  0  0  0  0  0  0  0
   60.2650   83.2030   33.9400 C   0  0  0  0  0  0  0  0  0  0  0  0
   61.1620   84.2490   32.0030 O   0  0  0  0  0  0  0  0  0  0  0  0
   60.4270   82.2860   30.2480 C   0  0  0  0  0  0  0  0  0  0  0  0
   59.4160   81.5750   29.3560 C   0  0  0  0  0  0  0  0  0  0  0  0
   55.0940   78.8330   28.3630 C   0  0  0  0  0  0  0  0  0  0  0  0
   53.9640   78.1900   27.8470 C   0  0  0  0  0  0  0  0  0  0  0  0
   50.8499   74.5874   26.5418 H   0  0  0  0  0  0  0  0  0  0  0  0
   50.8759   75.6950   25.1278 H   0  0  0  0  0  0  0  0  0  0  0  0
   51.8931   74.2144   25.1278 H   0  0  0  0  0  0  0  0  0  0  0  0
   53.4820   75.6610   25.9500 H   0  0  0  0  0  0  0  0  0  0  0  0
   54.3056   75.1682   29.3919 H   0  0  0  0  0  0  0  0  0  0  0  0
   56.3113   76.3227   30.3198 H   0  0  0  0  0  0  0  0  0  0  0  0
   57.1050   79.0140   30.7380 H   0  0  0  0  0  0  0  0  0  0  0  0
   60.0442   79.5597   29.8114 H   0  0  0  0  0  0  0  0  0  0  0  0
   57.7029   80.7780   31.3669 H   0  0  0  0  0  0  0  0  0  0  0  0
   58.5416   79.2073   31.7013 H   0  0  0  0  0  0  0  0  0  0  0  0
   59.2431   81.0955   33.2010 H   0  0  0  0  0  0  0  0  0  0  0  0
   60.5832   80.3313   32.2409 H   0  0  0  0  0  0  0  0  0  0  0  0
   61.1687   83.4889   34.4982 H   0  0  0  0  0  0  0  0  0  0  0  0
   59.4420   83.8847   34.2008 H   0  0  0  0  0  0  0  0  0  0  0  0
   59.9838   82.1720   34.2008 H   0  0  0  0  0  0  0  0  0  0  0  0
   60.5054   83.3346   29.9251 H   0  0  0  0  0  0  0  0  0  0  0  0
   61.3870   81.7581   30.1496 H   0  0  0  0  0  0  0  0  0  0  0  0
   58.4797   82.1522   29.3446 H   0  0  0  0  0  0  0  0  0  0  0  0
   59.8386   81.4997   28.3432 H   0  0  0  0  0  0  0  0  0  0  0  0
   55.3165   79.8677   28.0631 H   0  0  0  0  0  0  0  0  0  0  0  0
   53.3078   78.7199   27.1409 H   0  0  0  0  0  0  0  0  0  0  0  0
  1  2  1  0
  2  3  1  0
  3  4  2  0
  3  5  1  0
  5  6  1  0
  6  7  2  0
  7  8  1  0
  8  9  1  0
  9 10  1  0
 10 11  2  0
 10 12  1  0
 12 13  1  0
 13 14  1  0
 14 15  1  0
 15 16  1  0
 16 17  1  0
 16 18  2  0
 15 19  1  0
 19 20  1  0
  8 21  2  0
 21 22  1  0
 22  5  2  0
 20 12  1  0
  1 23  1  0
  1 24  1  0
  1 25  1  0
  2 26  1  0
  6 27  1  0
  7 28  1  0
  9 29  1  0
 12 30  1  0
 13 31  1  0
 13 32  1  0
 14 33  1  0
 14 34  1  0
 17 35  1  0
 17 36  1  0
 17 37  1  0
 19 38  1  0
 19 39  1  0
 20 40  1  0
 20 41  1  0
 21 42  1  0
 22 43  1  0
M  END
>  <meeko>  (1) 
{"is_sidechain": false}

>  <smiles>  (1) 
CNC(=O)c1ccc(NC(=O)C2CCN(C(C)=O)CC2)cc1

>  <vina_score>  (1) 
-8.065

>  <job_id>  (1) 
5ce805e81d75ac7a

$$$$
