
     RDKit          3D

 42 43  0  0  0  0  0  0  0  0999 V2000
   58.5090   80.2700   31.4020 C   0  0  0  0  0  0  0  0  0  0  0  0
   58.8120   79.8570   29.9590 C   0  0  0  0  0  0  0  0  0  0  0  0
   59.5150   80.9880   29.2030 C   0  0  0  0  0  0  0  0  0  0  0  0
   57.5600   79.3960   29.2370 C   0  0  0  0  0  0  0  0  0  0  0  0
   56.6860   78.4600   29.8010 C   0  0  0  0  0  0  0  0  0  0  0  0
   55.5390   78.0480   29.1140 C   0  0  0  0  0  0  0  0  0  0  0  0
   55.2300   78.5610   27.8430 C   0  0  0  0  0  0  0  0  0  0  0  0
   53.9700   78.0680   27.1370 C   0  0  0  0  0  0  0  0  0  0  0  0
   52.7810   77.7560   28.0580 C   0  0  0  0  0  0  0  0  0  0  0  0
   53.5220   78.9990   26.0140 C   0  0  0  0  0  0  0  0  0  0  0  0
   53.6860   78.6090   24.6740 C   0  0  0  0  0  0  0  0  0  0  0  0
   53.2760   79.4450   23.6340 C   0  0  0  0  0  0  0  0  0  0  0  0
   52.6870   80.6770   23.9290 C   0  0  0  0  0  0  0  0  0  0  0  0
   52.1980   81.7510   22.6150 S   0  0  0  0  0  0  0  0  0  0  0  0
   50.5870   81.3260   22.3980 N   0  0  0  0  0  0  0  0  0  0  0  0
   52.8750   81.3600   21.4000 O   0  0  0  0  0  0  0  0  0  0  0  0
   52.1850   83.1150   23.0890 O   0  0  0  0  0  0  0  0  0  0  0  0
   52.5220   81.0860   25.2540 C   0  0  0  0  0  0  0  0  0  0  0  0
   52.9340   80.2460   26.2900 C   0  0  0  0  0  0  0  0  0  0  0  0
   56.1100   79.4940   27.2800 C   0  0  0  0  0  0  0  0  0  0  0  0
   57.2570   79.9070   27.9670 C   0  0  0  0  0  0  0  0  0  0  0  0
   59.0146   79.5809   32.0945 H   0  0  0  0  0  0  0  0  0  0  0  0
   58.8715   81.2942   31.5741 H   0  0  0  0  0  0  0  0  0  0  0  0
   57.4232   80.2316   31.5741 H   0  0  0  0  0  0  0  0  0  0  0  0
   59.4993   78.9988   29.9922 H   0  0  0  0  0  0  0  0  0  0  0  0
   59.9536   81.6937   29.9239 H   0  0  0  0  0  0  0  0  0  0  0  0
   60.3110   80.5673   28.5710 H   0  0  0  0  0  0  0  0  0  0  0  0
   58.7854   81.5155   28.5710 H   0  0  0  0  0  0  0  0  0  0  0  0
   56.9032   78.0435   30.7957 H   0  0  0  0  0  0  0  0  0  0  0  0
   54.8676   77.3098   29.5768 H   0  0  0  0  0  0  0  0  0  0  0  0
   54.2887   77.1068   26.7074 H   0  0  0  0  0  0  0  0  0  0  0  0
   53.0987   77.8394   29.1078 H   0  0  0  0  0  0  0  0  0  0  0  0
   51.9685   78.4713   27.8629 H   0  0  0  0  0  0  0  0  0  0  0  0
   52.4244   76.7339   27.8629 H   0  0  0  0  0  0  0  0  0  0  0  0
   54.1420   77.6352   24.4423 H   0  0  0  0  0  0  0  0  0  0  0  0
   53.4159   79.1354   22.5878 H   0  0  0  0  0  0  0  0  0  0  0  0
   49.9860   82.1010   22.6780 H   0  0  0  0  0  0  0  0  0  0  0  0
   50.4400   81.0130   21.4390 H   0  0  0  0  0  0  0  0  0  0  0  0
   52.0705   82.0633   25.4798 H   0  0  0  0  0  0  0  0  0  0  0  0
   52.7971   80.5633   27.3343 H   0  0  0  0  0  0  0  0  0  0  0  0
   55.8964   79.9080   26.2835 H   0  0  0  0  0  0  0  0  0  0  0  0
   57.9306   80.6431   27.5040 H   0  0  0  0  0  0  0  0  0  0  0  0
  1  2  1  0
  2  3  1  0
  2  4  1  0
  4  5  1  0
  5  6  2  0
  6  7  1  0
  7  8  1  0
  8  9  1  0
  8 10  1  0
 10 11  1  0
 11 12  2  0
 12 13  1  0
 13 14  1  0
 14 15  1  0
 14 16  2  0
 14 17  2  0
 13 18  2  0
 18 19  1  0
  7 20  2  0
 20 21  1  0
 21  4  2  0
 19 10  2  0
  1 22  1  0
  1 23  1  0
  1 24  1  0
  2 25  1  0
  3 26  1  0
  3 27  1  0
  3 28  1  0
  5 29  1  0
  6 30  1  0
  8 31  1  0
  9 32  1  0
  9 33  1  0
  9 34  1  0
 11 35  1  0
 12 36  1  0
 15 37  1  0
 15 38  1  0
 18 39  1  0
 19 40  1  0
 20 41  1  0
 21 42  1  0
M  END
>  <meeko>  (1) 
{"is_sidechain": false}

>  <smiles>  (1) 
CC(C)c1ccc(C(C)c2ccc(S(N)(=O)=O)cc2)cc1

>  <vina_score>  (1) 
-8.561

>  <job_id>  (1) 
5ce8269c94f8b372

$$$$
