
     RDKit          3D

 44 45  0  0  0  0  0  0  0  0999 V2000
   52.1850   75.8430   27.4970 C   0  0  0  0  0  0  0  0  0  0  0  0
   53.2900   76.6090   28.0170 N   0  0  0  0  0  0  0  0  0  0  0  0
   53.4600   77.9330   27.6610 C   0  0  0  0  0  0  0  0  0  0  0  0
   52.7530   78.4930   26.8300 O   0  0  0  0  0  0  0  0  0  0  0  0
   54.6230   78.6100   28.3790 C   0  0  0  0  0  0  0  0  0  0  0  0
   55.4550   77.5580   29.1250 C   0  0  0  0  0  0  0  0  0  0  0  0
   56.6170   78.1920   29.8950 C   0  0  0  0  0  0  0  0  0  0  0  0
   57.1730   79.3420   29.1750 N   0  0  0  0  0  0  0  0  0  0  0  0
   58.1720   80.1210   29.7500 C   0  0  0  0  0  0  0  0  0  0  0  0
   58.3310   80.2320   31.1450 C   0  0  0  0  0  0  0  0  0  0  0  0
   59.3270   81.0320   31.7200 C   0  0  0  0  0  0  0  0  0  0  0  0
   60.1800   81.7720   30.9030 C   0  0  0  0  0  0  0  0  0  0  0  0
   61.2580   82.6050   31.4810 C   0  0  0  0  0  0  0  0  0  0  0  0
   62.3800   82.1070   31.5630 O   0  0  0  0  0  0  0  0  0  0  0  0
   60.9570   83.8940   31.9200 N   0  0  0  0  0  0  0  0  0  0  0  0
   61.9910   84.6370   32.6190 C   0  0  0  0  0  0  0  0  0  0  0  0
   59.8040   84.6670   31.4770 C   0  0  0  0  0  0  0  0  0  0  0  0
   60.0570   81.6830   29.5200 C   0  0  0  0  0  0  0  0  0  0  0  0
   59.0560   80.8790   28.9590 C   0  0  0  0  0  0  0  0  0  0  0  0
   56.9900   79.3220   27.7220 C   0  0  0  0  0  0  0  0  0  0  0  0
   55.4980   79.4420   27.4180 C   0  0  0  0  0  0  0  0  0  0  0  0
   51.5965   75.4350   28.3320 H   0  0  0  0  0  0  0  0  0  0  0  0
   51.5460   76.4929   26.8811 H   0  0  0  0  0  0  0  0  0  0  0  0
   52.5694   75.0166   26.8811 H   0  0  0  0  0  0  0  0  0  0  0  0
   53.7430   76.2760   28.8580 H   0  0  0  0  0  0  0  0  0  0  0  0
   54.2063   79.3194   29.1091 H   0  0  0  0  0  0  0  0  0  0  0  0
   54.8040   77.0281   29.8359 H   0  0  0  0  0  0  0  0  0  0  0  0
   55.8757   76.8652   28.3814 H   0  0  0  0  0  0  0  0  0  0  0  0
   56.2543   78.5267   30.8781 H   0  0  0  0  0  0  0  0  0  0  0  0
   57.4099   77.4379   30.0070 H   0  0  0  0  0  0  0  0  0  0  0  0
   57.6512   79.6725   31.8044 H   0  0  0  0  0  0  0  0  0  0  0  0
   59.4356   81.0760   32.8137 H   0  0  0  0  0  0  0  0  0  0  0  0
   61.8467   84.5333   33.7046 H   0  0  0  0  0  0  0  0  0  0  0  0
   62.9788   84.2408   32.3409 H   0  0  0  0  0  0  0  0  0  0  0  0
   61.9306   85.6995   32.3409 H   0  0  0  0  0  0  0  0  0  0  0  0
   59.2520   85.0371   32.3535 H   0  0  0  0  0  0  0  0  0  0  0  0
   60.1449   85.5197   30.8715 H   0  0  0  0  0  0  0  0  0  0  0  0
   59.1447   84.0277   30.8715 H   0  0  0  0  0  0  0  0  0  0  0  0
   60.7442   82.2426   28.8684 H   0  0  0  0  0  0  0  0  0  0  0  0
   58.9576   80.8388   27.8641 H   0  0  0  0  0  0  0  0  0  0  0  0
   57.5298   80.1664   27.2687 H   0  0  0  0  0  0  0  0  0  0  0  0
   57.3843   78.3831   27.3061 H   0  0  0  0  0  0  0  0  0  0  0  0
   55.2059   80.4991   27.5030 H   0  0  0  0  0  0  0  0  0  0  0  0
   55.3349   79.0539   26.4017 H   0  0  0  0  0  0  0  0  0  0  0  0
  1  2  1  0
  2  3  1  0
  3  4  2  0
  3  5  1  0
  5  6  1  0
  6  7  1  0
  7  8  1  0
  8  9  1  0
  9 10  1  0
 10 11  2  0
 11 12  1  0
 12 13  1  0
 13 14  2  0
 13 15  1  0
 15 16  1  0
 15 17  1  0
 12 18  2  0
 18 19  1  0
  8 20  1  0
 20 21  1  0
 21  5  1  0
 19  9  2  0
  1 22  1  0
  1 23  1  0
  1 24  1  0
  2 25  1  0
  5 26  1  0
  6 27  1  0
  6 28  1  0
  7 29  1  0
  7 30  1  0
 10 31  1  0
 11 32  1  0
 16 33  1  0
 16 34  1  0
 16 35  1  0
 17 36  1  0
 17 37  1  0
 17 38  1  0
 18 39  1  0
 19 40  1  0
 20 41  1  0
 20 42  1  0
 21 43  1  0
 21 44  1  0
M  END
>  <meeko>  (1) 
{"is_sidechain": false}

>  <smiles>  (1) 
CNC(=O)C1CCN(c2ccc(C(=O)N(C)C)cc2)CC1

>  <vina_score>  (1) 
-7.098

>  <job_id>  (1) 
5d43a9779b0aab9f

$$$$
