
     RDKit          3D

 40 41  0  0  0  0  0  0  0  0999 V2000
   50.2210   81.0780   21.2980 C   0  0  0  0  0  0  0  0  0  0  0  0
   51.4670   81.2190   22.0300 N   0  0  0  0  0  0  0  0  0  0  0  0
   52.6000   81.7320   21.2710 C   0  0  0  0  0  0  0  0  0  0  0  0
   51.4350   81.0870   23.4160 C   0  0  0  0  0  0  0  0  0  0  0  0
   50.3950   80.9820   24.0650 O   0  0  0  0  0  0  0  0  0  0  0  0
   52.7100   81.0540   24.1700 C   0  0  0  0  0  0  0  0  0  0  0  0
   53.2270   82.2480   24.6780 C   0  0  0  0  0  0  0  0  0  0  0  0
   54.4130   82.2350   25.4170 C   0  0  0  0  0  0  0  0  0  0  0  0
   55.0890   81.0310   25.6610 C   0  0  0  0  0  0  0  0  0  0  0  0
   56.2730   81.0990   26.4220 N   0  0  0  0  0  0  0  0  0  0  0  0
   56.7050   80.1940   27.3810 C   0  0  0  0  0  0  0  0  0  0  0  0
   56.1600   79.1360   27.6600 O   0  0  0  0  0  0  0  0  0  0  0  0
   57.8220   80.6950   28.0310 N   0  0  0  0  0  0  0  0  0  0  0  0
   58.5600   79.9250   28.9070 C   0  0  0  0  0  0  0  0  0  0  0  0
   58.8130   78.7350   28.7660 O   0  0  0  0  0  0  0  0  0  0  0  0
   59.1730   80.6560   30.0480 C   0  0  0  0  0  0  0  0  0  0  0  0
   60.0610   81.7240   29.8600 C   0  0  0  0  0  0  0  0  0  0  0  0
   60.6030   82.3790   30.9680 C   0  0  0  0  0  0  0  0  0  0  0  0
   60.2700   81.9660   32.2590 C   0  0  0  0  0  0  0  0  0  0  0  0
   59.4020   80.8910   32.4480 C   0  0  0  0  0  0  0  0  0  0  0  0
   58.8580   80.2320   31.3440 C   0  0  0  0  0  0  0  0  0  0  0  0
   54.5450   79.8370   25.1780 C   0  0  0  0  0  0  0  0  0  0  0  0
   53.3560   79.8450   24.4410 C   0  0  0  0  0  0  0  0  0  0  0  0
   49.3868   80.9836   22.0088 H   0  0  0  0  0  0  0  0  0  0  0  0
   50.0651   81.9642   20.6653 H   0  0  0  0  0  0  0  0  0  0  0  0
   50.2671   80.1793   20.6653 H   0  0  0  0  0  0  0  0  0  0  0  0
   53.3773   82.0839   21.9653 H   0  0  0  0  0  0  0  0  0  0  0  0
   53.0095   80.9315   20.6374 H   0  0  0  0  0  0  0  0  0  0  0  0
   52.2686   82.5679   20.6374 H   0  0  0  0  0  0  0  0  0  0  0  0
   52.7014   83.1971   24.4966 H   0  0  0  0  0  0  0  0  0  0  0  0
   54.8200   83.1780   25.8109 H   0  0  0  0  0  0  0  0  0  0  0  0
   56.9750   81.7480   26.0970 H   0  0  0  0  0  0  0  0  0  0  0  0
   57.7040   81.6660   28.2720 H   0  0  0  0  0  0  0  0  0  0  0  0
   60.3302   82.0453   28.8430 H   0  0  0  0  0  0  0  0  0  0  0  0
   61.2940   83.2225   30.8229 H   0  0  0  0  0  0  0  0  0  0  0  0
   60.6930   82.4895   33.1291 H   0  0  0  0  0  0  0  0  0  0  0  0
   59.1462   80.5625   33.4662 H   0  0  0  0  0  0  0  0  0  0  0  0
   58.1807   79.3781   31.4930 H   0  0  0  0  0  0  0  0  0  0  0  0
   55.0560   78.8839   25.3791 H   0  0  0  0  0  0  0  0  0  0  0  0
   52.9296   78.8995   24.0748 H   0  0  0  0  0  0  0  0  0  0  0  0
  1  2  1  0
  2  3  1  0
  2  4  1  0
  4  5  2  0
  4  6  1  0
  6  7  1  0
  7  8  2  0
  8  9  1  0
  9 10  1  0
 10 11  1  0
 11 12  2  0
 11 13  1  0
 13 14  1  0
 14 15  2  0
 14 16  1  0
 16 17  2  0
 17 18  1  0
 18 19  2  0
 19 20  1  0
 20 21  2  0
  9 22  2  0
 22 23  1  0
 23  6  2  0
 21 16  1  0
  1 24  1  0
  1 25  1  0
  1 26  1  0
  3 27  1  0
  3 28  1  0
  3 29  1  0
  7 30  1  0
  8 31  1  0
 10 32  1  0
 13 33  1  0
 17 34  1  0
 18 35  1  0
 19 36  1  0
 20 37  1  0
 21 38  1  0
 22 39  1  0
 23 40  1  0
M  END
>  <meeko>  (1) 
{"is_sidechain": false}

>  <smiles>  (1) 
CN(C)C(=O)c1ccc(NC(=O)NC(=O)c2ccccc2)cc1

>  <vina_score>  (1) 
-7.931

>  <job_id>  (1) 
5e14c2fc9347e2c8

$$$$
