
     RDKit          3D

 40 41  0  0  0  0  0  0  0  0999 V2000
   52.5600   77.7240   27.1600 C   0  0  0  0  0  0  0  0  0  0  0  0
   53.4980   78.7660   26.5150 C   0  0  0  0  0  0  0  0  0  0  0  0
   53.6940   78.3560   25.0380 C   0  0  0  0  0  0  0  0  0  0  0  0
   52.8030   80.1450   26.5200 C   0  0  0  0  0  0  0  0  0  0  0  0
   54.8050   78.8440   27.3090 C   0  0  0  0  0  0  0  0  0  0  0  0
   55.1030   78.0220   28.3970 C   0  0  0  0  0  0  0  0  0  0  0  0
   56.3210   78.1550   29.0700 C   0  0  0  0  0  0  0  0  0  0  0  0
   57.2480   79.1090   28.6550 C   0  0  0  0  0  0  0  0  0  0  0  0
   58.4620   79.2010   29.3760 N   0  0  0  0  0  0  0  0  0  0  0  0
   58.9390   80.2580   30.1830 C   0  0  0  0  0  0  0  0  0  0  0  0
   59.7200   81.3090   29.6810 C   0  0  0  0  0  0  0  0  0  0  0  0
   60.1160   82.3730   30.4980 C   0  0  0  0  0  0  0  0  0  0  0  0
   59.6950   82.4110   31.8260 C   0  0  0  0  0  0  0  0  0  0  0  0
   60.1830   83.7590   32.8680 S   0  0  0  0  0  0  0  0  0  0  0  0
   60.0600   83.0590   34.3960 N   0  0  0  0  0  0  0  0  0  0  0  0
   61.5760   84.0490   32.6250 O   0  0  0  0  0  0  0  0  0  0  0  0
   59.1560   84.7750   32.8220 O   0  0  0  0  0  0  0  0  0  0  0  0
   58.8970   81.3930   32.3460 C   0  0  0  0  0  0  0  0  0  0  0  0
   58.5120   80.3330   31.5200 C   0  0  0  0  0  0  0  0  0  0  0  0
   56.9790   79.9200   27.6160 N   0  0  0  0  0  0  0  0  0  0  0  0
   55.7930   79.7720   26.9760 C   0  0  0  0  0  0  0  0  0  0  0  0
   52.6271   77.7986   28.2554 H   0  0  0  0  0  0  0  0  0  0  0  0
   51.5246   77.9162   26.8422 H   0  0  0  0  0  0  0  0  0  0  0  0
   52.8597   76.7145   26.8422 H   0  0  0  0  0  0  0  0  0  0  0  0
   54.1680   77.3644   24.9925 H   0  0  0  0  0  0  0  0  0  0  0  0
   52.7164   78.3185   24.5351 H   0  0  0  0  0  0  0  0  0  0  0  0
   54.3371   79.0932   24.5351 H   0  0  0  0  0  0  0  0  0  0  0  0
   52.6395   80.4694   27.5583 H   0  0  0  0  0  0  0  0  0  0  0  0
   53.4393   80.8781   26.0026 H   0  0  0  0  0  0  0  0  0  0  0  0
   51.8352   80.0697   26.0026 H   0  0  0  0  0  0  0  0  0  0  0  0
   54.3756   77.2656   28.7266 H   0  0  0  0  0  0  0  0  0  0  0  0
   56.5480   77.5056   29.9284 H   0  0  0  0  0  0  0  0  0  0  0  0
   59.2040   78.7840   28.8270 H   0  0  0  0  0  0  0  0  0  0  0  0
   60.0270   81.2964   28.6248 H   0  0  0  0  0  0  0  0  0  0  0  0
   60.7545   83.1732   30.0956 H   0  0  0  0  0  0  0  0  0  0  0  0
   59.0820   82.8150   34.5650 H   0  0  0  0  0  0  0  0  0  0  0  0
   60.6780   82.2580   34.5190 H   0  0  0  0  0  0  0  0  0  0  0  0
   58.5732   81.4236   33.3968 H   0  0  0  0  0  0  0  0  0  0  0  0
   57.8625   79.5425   31.9241 H   0  0  0  0  0  0  0  0  0  0  0  0
   55.5928   80.4383   26.1239 H   0  0  0  0  0  0  0  0  0  0  0  0
  1  2  1  0
  2  3  1  0
  2  4  1  0
  2  5  1  0
  5  6  2  0
  6  7  1  0
  7  8  2  0
  8  9  1  0
  9 10  1  0
 10 11  1  0
 11 12  2  0
 12 13  1  0
 13 14  1  0
 14 15  1  0
 14 16  2  0
 14 17  2  0
 13 18  2  0
 18 19  1  0
  8 20  1  0
 20 21  2  0
 21  5  1  0
 19 10  2  0
  1 22  1  0
  1 23  1  0
  1 24  1  0
  3 25  1  0
  3 26  1  0
  3 27  1  0
  4 28  1  0
  4 29  1  0
  4 30  1  0
  6 31  1  0
  7 32  1  0
  9 33  1  0
 11 34  1  0
 12 35  1  0
 15 36  1  0
 15 37  1  0
 18 38  1  0
 19 39  1  0
 21 40  1  0
M  END
>  <meeko>  (1) 
{"is_sidechain": false}

>  <smiles>  (1) 
CC(C)(C)c1ccc(Nc2ccc(S(N)(=O)=O)cc2)nc1

>  <vina_score>  (1) 
-7.723

>  <job_id>  (1) 
5e144818c2c2da08

$$$$
