
     RDKit          3D

 49 51  0  0  0  0  0  0  0  0999 V2000
   59.9260   85.5730   32.9020 C   0  0  0  0  0  0  0  0  0  0  0  0
   60.0600   84.2660   33.6440 C   0  0  0  0  0  0  0  0  0  0  0  0
   60.5300   84.2500   34.7810 O   0  0  0  0  0  0  0  0  0  0  0  0
   59.6450   83.1120   32.9800 N   0  0  0  0  0  0  0  0  0  0  0  0
   58.7400   83.1470   31.8320 C   0  0  0  0  0  0  0  0  0  0  0  0
   58.8820   81.9180   30.9410 C   0  0  0  0  0  0  0  0  0  0  0  0
   58.7580   80.6200   31.7520 C   0  0  0  0  0  0  0  0  0  0  0  0
   58.9240   79.4820   30.8380 N   0  0  0  0  0  0  0  0  0  0  0  0
   58.8910   79.8650   29.4260 C   0  0  0  0  0  0  0  0  0  0  0  0
   57.5500   79.5270   28.8140 C   0  0  0  0  0  0  0  0  0  0  0  0
   57.1040   80.1820   27.6590 C   0  0  0  0  0  0  0  0  0  0  0  0
   55.8680   79.8570   27.0940 C   0  0  0  0  0  0  0  0  0  0  0  0
   55.0600   78.8800   27.6850 C   0  0  0  0  0  0  0  0  0  0  0  0
   53.7610   78.5550   27.0420 C   0  0  0  0  0  0  0  0  0  0  0  0
   53.1090   77.5990   27.4580 O   0  0  0  0  0  0  0  0  0  0  0  0
   53.2300   79.3560   25.9110 C   0  0  0  0  0  0  0  0  0  0  0  0
   53.4100   78.8720   24.6090 C   0  0  0  0  0  0  0  0  0  0  0  0
   52.9350   79.6030   23.5200 C   0  0  0  0  0  0  0  0  0  0  0  0
   52.2910   80.8220   23.7260 C   0  0  0  0  0  0  0  0  0  0  0  0
   52.1280   81.3180   25.0200 C   0  0  0  0  0  0  0  0  0  0  0  0
   52.6020   80.5910   26.1130 C   0  0  0  0  0  0  0  0  0  0  0  0
   55.5080   78.2030   28.8240 C   0  0  0  0  0  0  0  0  0  0  0  0
   56.7430   78.5310   29.3860 C   0  0  0  0  0  0  0  0  0  0  0  0
   59.8090   80.6330   32.8680 C   0  0  0  0  0  0  0  0  0  0  0  0
   59.6580   81.8700   33.7490 C   0  0  0  0  0  0  0  0  0  0  0  0
   59.8414   86.3979   33.6247 H   0  0  0  0  0  0  0  0  0  0  0  0
   60.8129   85.7285   32.2702 H   0  0  0  0  0  0  0  0  0  0  0  0
   59.0260   85.5453   32.2702 H   0  0  0  0  0  0  0  0  0  0  0  0
   57.7047   83.1986   32.2000 H   0  0  0  0  0  0  0  0  0  0  0  0
   58.9983   84.0298   31.2287 H   0  0  0  0  0  0  0  0  0  0  0  0
   58.0927   81.9382   30.1752 H   0  0  0  0  0  0  0  0  0  0  0  0
   59.8784   81.9413   30.4756 H   0  0  0  0  0  0  0  0  0  0  0  0
   57.7697   80.5311   32.2267 H   0  0  0  0  0  0  0  0  0  0  0  0
   59.8190   79.0240   31.0190 H   0  0  0  0  0  0  0  0  0  0  0  0
   59.0645   80.9479   29.3410 H   0  0  0  0  0  0  0  0  0  0  0  0
   59.6754   79.3107   28.8898 H   0  0  0  0  0  0  0  0  0  0  0  0
   57.7307   80.9571   27.1938 H   0  0  0  0  0  0  0  0  0  0  0  0
   55.5295   80.3708   26.1821 H   0  0  0  0  0  0  0  0  0  0  0  0
   53.9264   77.9147   24.4451 H   0  0  0  0  0  0  0  0  0  0  0  0
   53.0687   79.2174   22.4985 H   0  0  0  0  0  0  0  0  0  0  0  0
   51.9106   81.3940   22.8669 H   0  0  0  0  0  0  0  0  0  0  0  0
   51.6252   82.2834   25.1789 H   0  0  0  0  0  0  0  0  0  0  0  0
   52.4824   80.9878   27.1319 H   0  0  0  0  0  0  0  0  0  0  0  0
   54.8887   77.4141   29.2758 H   0  0  0  0  0  0  0  0  0  0  0  0
   57.0877   78.0030   30.2873 H   0  0  0  0  0  0  0  0  0  0  0  0
   59.6860   79.7328   33.4881 H   0  0  0  0  0  0  0  0  0  0  0  0
   60.8079   80.6511   32.4077 H   0  0  0  0  0  0  0  0  0  0  0  0
   58.7131   81.7916   34.3067 H   0  0  0  0  0  0  0  0  0  0  0  0
   60.5266   81.9058   34.4230 H   0  0  0  0  0  0  0  0  0  0  0  0
  1  2  1  0
  2  3  2  0
  2  4  1  0
  4  5  1  0
  5  6  1  0
  6  7  1  0
  7  8  1  0
  8  9  1  0
  9 10  1  0
 10 11  1  0
 11 12  2  0
 12 13  1  0
 13 14  1  0
 14 15  2  0
 14 16  1  0
 16 17  2  0
 17 18  1  0
 18 19  2  0
 19 20  1  0
 20 21  2  0
 13 22  2  0
 22 23  1  0
  7 24  1  0
 24 25  1  0
 25  4  1  0
 23 10  2  0
 21 16  1  0
  1 26  1  0
  1 27  1  0
  1 28  1  0
  5 29  1  0
  5 30  1  0
  6 31  1  0
  6 32  1  0
  7 33  1  0
  8 34  1  0
  9 35  1  0
  9 36  1  0
 11 37  1  0
 12 38  1  0
 17 39  1  0
 18 40  1  0
 19 41  1  0
 20 42  1  0
 21 43  1  0
 22 44  1  0
 23 45  1  0
 24 46  1  0
 24 47  1  0
 25 48  1  0
 25 49  1  0
M  END
>  <meeko>  (1) 
{"is_sidechain": false}

>  <smiles>  (1) 
CC(=O)N1CCC(NCc2ccc(C(=O)c3ccccc3)cc2)CC1

>  <vina_score>  (1) 
-8.703

>  <job_id>  (1) 
5e44a699e76bf999

$$$$
