
     RDKit          3D

 50 52  0  0  0  0  0  0  0  0999 V2000
   60.6470   82.2410   32.8430 C   0  0  0  0  0  0  0  0  0  0  0  0
   59.9860   81.6390   31.6840 N   0  0  0  0  0  0  0  0  0  0  0  0
   60.0980   82.4950   30.5000 C   0  0  0  0  0  0  0  0  0  0  0  0
   59.7960   81.8460   29.1460 C   0  0  0  0  0  0  0  0  0  0  0  0
   59.3330   80.3890   29.2650 C   0  0  0  0  0  0  0  0  0  0  0  0
   58.0010   80.1780   29.8550 N   0  0  0  0  0  0  0  0  0  0  0  0
   57.3400   79.0050   29.2450 C   0  0  0  0  0  0  0  0  0  0  0  0
   56.3960   79.3570   28.1130 C   0  0  0  0  0  0  0  0  0  0  0  0
   55.2180   78.6290   27.9110 C   0  0  0  0  0  0  0  0  0  0  0  0
   54.3430   78.9690   26.8730 C   0  0  0  0  0  0  0  0  0  0  0  0
   54.6170   80.0440   26.0120 C   0  0  0  0  0  0  0  0  0  0  0  0
   53.6950   80.3970   24.9200 C   0  0  0  0  0  0  0  0  0  0  0  0
   53.4290   81.7430   24.6050 C   0  0  0  0  0  0  0  0  0  0  0  0
   52.5560   82.0840   23.5690 C   0  0  0  0  0  0  0  0  0  0  0  0
   51.9320   81.0740   22.8380 C   0  0  0  0  0  0  0  0  0  0  0  0
   50.8260   81.4910   21.5180 S   0  0  0  0  0  0  0  0  0  0  0  0
   49.3370   81.0690   22.1820 N   0  0  0  0  0  0  0  0  0  0  0  0
   51.0840   80.6090   20.4050 O   0  0  0  0  0  0  0  0  0  0  0  0
   50.7960   82.9290   21.3790 O   0  0  0  0  0  0  0  0  0  0  0  0
   52.1870   79.7300   23.1190 C   0  0  0  0  0  0  0  0  0  0  0  0
   53.0610   79.4000   24.1580 C   0  0  0  0  0  0  0  0  0  0  0  0
   55.7980   80.7700   26.2260 C   0  0  0  0  0  0  0  0  0  0  0  0
   56.6750   80.4350   27.2620 C   0  0  0  0  0  0  0  0  0  0  0  0
   58.0570   80.0070   31.3200 C   0  0  0  0  0  0  0  0  0  0  0  0
   58.6120   81.2540   32.0400 C   0  0  0  0  0  0  0  0  0  0  0  0
   60.2055   81.8389   33.7668 H   0  0  0  0  0  0  0  0  0  0  0  0
   61.7209   82.0042   32.8166 H   0  0  0  0  0  0  0  0  0  0  0  0
   60.5114   83.3323   32.8166 H   0  0  0  0  0  0  0  0  0  0  0  0
   59.3993   83.3347   30.6295 H   0  0  0  0  0  0  0  0  0  0  0  0
   61.1592   82.7806   30.4513 H   0  0  0  0  0  0  0  0  0  0  0  0
   59.0036   82.4253   28.6495 H   0  0  0  0  0  0  0  0  0  0  0  0
   60.7315   81.8457   28.5674 H   0  0  0  0  0  0  0  0  0  0  0  0
   59.3251   79.9554   28.2541 H   0  0  0  0  0  0  0  0  0  0  0  0
   60.0414   79.9099   29.9568 H   0  0  0  0  0  0  0  0  0  0  0  0
   58.1178   78.3335   28.8523 H   0  0  0  0  0  0  0  0  0  0  0  0
   56.7349   78.5319   30.0324 H   0  0  0  0  0  0  0  0  0  0  0  0
   54.9781   77.7836   28.5727 H   0  0  0  0  0  0  0  0  0  0  0  0
   53.4232   78.3831   26.7289 H   0  0  0  0  0  0  0  0  0  0  0  0
   53.9171   82.5403   25.1848 H   0  0  0  0  0  0  0  0  0  0  0  0
   52.3625   83.1406   23.3320 H   0  0  0  0  0  0  0  0  0  0  0  0
   49.2670   80.0500   22.2100 H   0  0  0  0  0  0  0  0  0  0  0  0
   48.5460   81.4910   21.6980 H   0  0  0  0  0  0  0  0  0  0  0  0
   51.7041   78.9382   22.5276 H   0  0  0  0  0  0  0  0  0  0  0  0
   53.2565   78.3413   24.3838 H   0  0  0  0  0  0  0  0  0  0  0  0
   56.0383   81.6176   25.5673 H   0  0  0  0  0  0  0  0  0  0  0  0
   57.5927   81.0231   27.4106 H   0  0  0  0  0  0  0  0  0  0  0  0
   57.0407   79.8086   31.6911 H   0  0  0  0  0  0  0  0  0  0  0  0
   58.7363   79.1684   31.5328 H   0  0  0  0  0  0  0  0  0  0  0  0
   57.9519   82.1018   31.8042 H   0  0  0  0  0  0  0  0  0  0  0  0
   58.6414   80.9942   33.1085 H   0  0  0  0  0  0  0  0  0  0  0  0
  1  2  1  0
  2  3  1  0
  3  4  1  0
  4  5  1  0
  5  6  1  0
  6  7  1  0
  7  8  1  0
  8  9  1  0
  9 10  2  0
 10 11  1  0
 11 12  1  0
 12 13  1  0
 13 14  2  0
 14 15  1  0
 15 16  1  0
 16 17  1  0
 16 18  2  0
 16 19  2  0
 15 20  2  0
 20 21  1  0
 11 22  2  0
 22 23  1  0
  6 24  1  0
 24 25  1  0
 25  2  1  0
 23  8  2  0
 21 12  2  0
  1 26  1  0
  1 27  1  0
  1 28  1  0
  3 29  1  0
  3 30  1  0
  4 31  1  0
  4 32  1  0
  5 33  1  0
  5 34  1  0
  7 35  1  0
  7 36  1  0
  9 37  1  0
 10 38  1  0
 13 39  1  0
 14 40  1  0
 17 41  1  0
 17 42  1  0
 20 43  1  0
 21 44  1  0
 22 45  1  0
 23 46  1  0
 24 47  1  0
 24 48  1  0
 25 49  1  0
 25 50  1  0
M  END
>  <meeko>  (1) 
{"is_sidechain": false}

>  <smiles>  (1) 
CN1CCCN(Cc2ccc(-c3ccc(S(N)(=O)=O)cc3)cc2)CC1

>  <vina_score>  (1) 
-6.818

>  <job_id>  (1) 
5ee19c0314ae1be3

$$$$
