
     RDKit          3D

 79 83  0  0  0  0  0  0  0  0999 V2000
   52.4410   75.7420   27.4710 C   0  0  0  0  0  0  0  0  0  0  0  0
   52.4750   77.1820   27.9610 C   0  0  0  0  0  0  0  0  0  0  0  0
   53.8590   77.6700   28.1970 C   0  0  0  0  0  0  0  0  0  0  0  0
   54.8100   77.1820   29.1150 C   0  0  0  0  0  0  0  0  0  0  0  0
   55.9640   77.8480   29.0890 N   0  0  0  0  0  0  0  0  0  0  0  0
   55.7740   78.8020   28.1260 N   0  0  0  0  0  0  0  0  0  0  0  0
   56.6970   79.7940   27.7140 C   0  0  0  0  0  0  0  0  0  0  0  0
   57.9480   79.8070   28.3450 N   0  0  0  0  0  0  0  0  0  0  0  0
   58.7380   81.0130   28.5340 C   0  0  0  0  0  0  0  0  0  0  0  0
   58.5960   81.4740   29.9600 C   0  0  0  0  0  0  0  0  0  0  0  0
   58.4710   80.5480   31.0030 C   0  0  0  0  0  0  0  0  0  0  0  0
   58.3260   80.9800   32.3170 C   0  0  0  0  0  0  0  0  0  0  0  0
   58.3020   82.3460   32.5850 C   0  0  0  0  0  0  0  0  0  0  0  0
   58.4140   83.2840   31.5740 N   0  0  0  0  0  0  0  0  0  0  0  0
   58.3840   84.5250   31.8380 O   0  0  0  0  0  0  0  0  0  0  0  0
   58.5600   82.8380   30.2710 C   0  0  0  0  0  0  0  0  0  0  0  0
   56.3100   80.6450   26.7500 C   0  0  0  0  0  0  0  0  0  0  0  0
   54.9200   80.4860   26.2000 C   0  0  0  0  0  0  0  0  0  0  0  0
   54.4970   81.4960   25.1200 C   0  0  0  0  0  0  0  0  0  0  0  0
   53.7410   80.8090   23.9640 C   0  0  0  0  0  0  0  0  0  0  0  0
   52.2780   81.2340   23.8330 C   0  0  0  0  0  0  0  0  0  0  0  0
   51.5940   81.3270   25.1880 C   0  0  0  0  0  0  0  0  0  0  0  0
   52.2870   82.3080   26.1370 C   0  0  0  0  0  0  0  0  0  0  0  0
   53.7170   82.6920   25.7100 C   0  0  1  0  0  0  0  0  0  0  0  0
   54.4830   83.3730   26.8580 C   0  0  0  0  0  0  0  0  0  0  0  0
   55.5660   84.7130   26.2610 S   0  0  0  0  0  4  0  0  0  0  0  0
   54.3980   85.9570   26.3890 N   0  0  0  0  0  0  0  0  0  0  0  0
   54.9770   87.2400   26.7630 N   0  0  0  0  0  0  0  0  0  0  0  0
   56.3410   87.1320   27.2980 C   0  0  0  0  0  0  0  0  0  0  0  0
   57.0550   88.4800   27.3580 C   0  0  0  0  0  0  0  0  0  0  0  0
   57.1720   89.1030   25.9680 C   0  0  0  0  0  0  0  0  0  0  0  0
   55.9610   88.8080   25.0770 C   0  0  0  0  0  0  0  0  0  0  0  0
   54.7240   88.4110   25.9000 C   0  0  1  0  0  0  0  0  0  0  0  0
   53.4520   88.3900   25.0210 C   0  0  0  0  0  0  0  0  0  0  0  0
   53.6780   88.2870   23.5110 C   0  0  0  0  0  0  0  0  0  0  0  0
   52.5620   87.7320   22.8260 O   0  0  0  0  0  0  0  0  0  0  0  0
   54.0750   79.5740   26.5900 N   0  0  0  0  0  0  0  0  0  0  0  0
   54.4990   78.7180   27.5660 C   0  0  0  0  0  0  0  0  0  0  0  0
   52.4249   75.0611   28.3347 H   0  0  0  0  0  0  0  0  0  0  0  0
   51.5389   75.5831   26.8620 H   0  0  0  0  0  0  0  0  0  0  0  0
   53.3346   75.5407   26.8620 H   0  0  0  0  0  0  0  0  0  0  0  0
   51.9989   77.8234   27.2047 H   0  0  0  0  0  0  0  0  0  0  0  0
   51.9383   77.2215   28.9204 H   0  0  0  0  0  0  0  0  0  0  0  0
   54.6184   76.3333   29.7881 H   0  0  0  0  0  0  0  0  0  0  0  0
   57.8970   79.2300   29.1930 H   0  0  0  0  0  0  0  0  0  0  0  0
   59.7953   80.7986   28.3194 H   0  0  0  0  0  0  0  0  0  0  0  0
   58.3834   81.8000   27.8522 H   0  0  0  0  0  0  0  0  0  0  0  0
   58.4876   79.4707   30.7813 H   0  0  0  0  0  0  0  0  0  0  0  0
   58.2314   80.2508   33.1351 H   0  0  0  0  0  0  0  0  0  0  0  0
   58.1914   82.6875   33.6248 H   0  0  0  0  0  0  0  0  0  0  0  0
   58.6500   83.5750   29.4594 H   0  0  0  0  0  0  0  0  0  0  0  0
   56.9850   81.4292   26.3767 H   0  0  0  0  0  0  0  0  0  0  0  0
   55.4189   81.9159   24.6913 H   0  0  0  0  0  0  0  0  0  0  0  0
   54.2563   81.0508   23.0227 H   0  0  0  0  0  0  0  0  0  0  0  0
   53.7390   79.7311   24.1835 H   0  0  0  0  0  0  0  0  0  0  0  0
   52.2355   82.2186   23.3443 H   0  0  0  0  0  0  0  0  0  0  0  0
   51.7530   80.4737   23.2362 H   0  0  0  0  0  0  0  0  0  0  0  0
   50.5564   81.6591   25.0357 H   0  0  0  0  0  0  0  0  0  0  0  0
   51.6401   80.3303   25.6510 H   0  0  0  0  0  0  0  0  0  0  0  0
   51.6829   83.2260   26.1865 H   0  0  0  0  0  0  0  0  0  0  0  0
   52.3714   81.8022   27.1102 H   0  0  0  0  0  0  0  0  0  0  0  0
   53.6224   83.4278   24.8978 H   0  0  0  0  0  0  0  0  0  0  0  0
   53.7564   83.7942   27.5683 H   0  0  0  0  0  0  0  0  0  0  0  0
   55.1175   82.6138   27.3387 H   0  0  0  0  0  0  0  0  0  0  0  0
   55.4630   84.4600   24.9380 H   0  0  0  0  0  0  0  0  0  0  0  0
   56.2890   86.7150   28.3146 H   0  0  0  0  0  0  0  0  0  0  0  0
   56.9141   86.4805   26.6219 H   0  0  0  0  0  0  0  0  0  0  0  0
   56.4857   89.1594   28.0094 H   0  0  0  0  0  0  0  0  0  0  0  0
   58.0681   88.3212   27.7560 H   0  0  0  0  0  0  0  0  0  0  0  0
   57.2683   90.1931   26.0792 H   0  0  0  0  0  0  0  0  0  0  0  0
   58.0542   88.6608   25.4820 H   0  0  0  0  0  0  0  0  0  0  0  0
   55.7237   89.7080   24.4907 H   0  0  0  0  0  0  0  0  0  0  0  0
   56.2189   87.9630   24.4216 H   0  0  0  0  0  0  0  0  0  0  0  0
   54.5055   89.1940   26.6410 H   0  0  0  0  0  0  0  0  0  0  0  0
   52.8447   87.5263   25.3295 H   0  0  0  0  0  0  0  0  0  0  0  0
   52.9665   89.3640   25.1810 H   0  0  0  0  0  0  0  0  0  0  0  0
   53.8689   89.2950   23.1141 H   0  0  0  0  0  0  0  0  0  0  0  0
   54.5349   87.6169   23.3481 H   0  0  0  0  0  0  0  0  0  0  0  0
   52.1330   87.1870   23.5430 H   0  0  0  0  0  0  0  0  0  0  0  0
  1  2  1  0
  2  3  1  0
  3  4  1  0
  4  5  2  0
  5  6  1  0
  6  7  1  0
  7  8  1  0
  8  9  1  0
  9 10  1  0
 10 11  1  0
 11 12  2  0
 12 13  1  0
 13 14  2  0
 14 15  1  0
 14 16  1  0
  7 17  2  0
 17 18  1  0
 18 19  1  0
 19 20  1  0
 20 21  1  0
 21 22  1  0
 22 23  1  0
 23 24  1  0
 24 25  1  0
 25 26  1  0
 26 27  2  3
 27 28  1  0
 28 29  1  0
 29 30  1  0
 30 31  1  0
 31 32  1  0
 32 33  1  0
 33 34  1  0
 34 35  1  0
 35 36  1  0
 18 37  2  0
 37 38  1  0
 38  3  2  0
 38  6  1  0
 16 10  2  0
 24 19  1  0
 33 28  1  0
  1 39  1  0
  1 40  1  0
  1 41  1  0
  2 42  1  0
  2 43  1  0
  4 44  1  0
  8 45  1  0
  9 46  1  0
  9 47  1  0
 11 48  1  0
 12 49  1  0
 13 50  1  0
 16 51  1  0
 17 52  1  0
 19 53  1  0
 20 54  1  0
 20 55  1  0
 21 56  1  0
 21 57  1  0
 22 58  1  0
 22 59  1  0
 23 60  1  0
 23 61  1  0
 24 62  1  6
 25 63  1  0
 25 64  1  0
 26 65  1  0
 29 66  1  0
 29 67  1  0
 30 68  1  0
 30 69  1  0
 31 70  1  0
 31 71  1  0
 32 72  1  0
 32 73  1  0
 33 74  1  1
 34 75  1  0
 34 76  1  0
 35 77  1  0
 35 78  1  0
 36 79  1  0
M  CHG  2  14   1  15  -1
M  END
>  <meeko>  (1) 
{"is_sidechain": false}

>  <smiles>  (1) 
CCc1cnn2c(NCc3ccc[n+]([O-])c3)cc(C3CCCC[C@H]3C[SH]=NN3CCCC[C@H]3CCO)nc12

>  <vina_score>  (1) 
-8.464

>  <job_id>  (1) 
5f3664e9ec7d19a5

$$$$
