
     RDKit          3D

 67 70  0  0  0  0  0  0  0  0999 V2000
   65.3630   87.0320   26.5190 C   0  0  0  0  0  0  0  0  0  0  0  0
   65.3490   86.6240   27.9680 C   0  0  0  0  0  0  0  0  0  0  0  0
   64.6340   87.5840   28.8760 C   0  0  0  0  0  0  0  0  0  0  0  0
   65.9400   85.4820   28.3650 C   0  0  0  0  0  0  0  0  0  0  0  0
   66.0310   84.9630   29.6280 N   0  0  0  0  0  0  0  0  0  0  0  0
   65.2010   84.0240   30.2700 C   0  0  0  0  0  0  0  0  0  0  0  0
   65.6760   82.8720   30.9040 C   0  0  0  0  0  0  0  0  0  0  0  0
   64.7980   81.9820   31.5290 C   0  0  0  0  0  0  0  0  0  0  0  0
   63.4290   82.2440   31.5460 C   0  0  0  0  0  0  0  0  0  0  0  0
   62.9220   83.4080   30.9640 C   0  0  0  0  0  0  0  0  0  0  0  0
   61.5350   83.6780   30.9250 N   0  0  0  0  0  0  0  0  0  0  0  0
   60.6250   82.8890   31.5760 N   0  0  0  0  0  0  0  0  0  0  0  0
   59.9670   81.8200   30.9300 C   0  0  0  0  0  0  0  0  0  0  0  0
   59.2110   80.8800   31.6350 C   0  0  0  0  0  0  0  0  0  0  0  0
   58.5220   79.8570   30.9690 C   0  0  0  0  0  0  0  0  0  0  0  0
   58.5480   79.7530   29.5770 C   0  0  0  0  0  0  0  0  0  0  0  0
   57.8810   78.7590   28.8520 N   0  0  0  0  0  0  0  0  0  0  0  0
   56.5490   78.3800   28.7290 C   0  0  0  0  0  0  0  0  0  0  0  0
   55.9530   77.5650   29.6140 N   0  0  0  0  0  0  0  0  0  0  0  0
   54.6600   77.2470   29.3940 C   0  0  0  0  0  0  0  0  0  0  0  0
   53.9410   77.7150   28.3280 C   0  0  0  0  0  0  0  0  0  0  0  0
   52.6600   77.3690   28.1510 F   0  0  0  0  0  0  0  0  0  0  0  0
   54.6200   78.5590   27.4790 C   0  0  0  0  0  0  0  0  0  0  0  0
   54.0040   79.1160   26.2830 C   0  0  0  0  0  0  0  0  0  0  0  0
   53.3690   78.4380   25.2590 C   0  0  0  0  0  0  0  0  0  0  0  0
   52.9350   79.2830   24.2830 N   0  0  0  0  0  0  0  0  0  0  0  0
   53.2790   80.4880   24.6780 C   0  0  0  0  0  0  0  0  0  0  0  0
   53.0210   81.7290   23.9000 C   0  0  0  0  0  0  0  0  0  0  0  0
   53.9040   80.4500   25.9180 N   0  0  0  0  0  0  0  0  0  0  0  0
   54.2980   81.6440   26.6670 C   0  0  0  0  0  0  0  0  0  0  0  0
   53.1290   82.6020   26.8960 C   0  0  0  0  0  0  0  0  0  0  0  0
   55.5420   82.3590   26.1330 C   0  0  0  0  0  0  0  0  0  0  0  0
   55.9160   78.8920   27.6580 N   0  0  0  0  0  0  0  0  0  0  0  0
   59.2770   80.7230   28.8720 C   0  0  0  0  0  0  0  0  0  0  0  0
   59.9670   81.7460   29.5350 C   0  0  0  0  0  0  0  0  0  0  0  0
   63.8160   84.2700   30.3090 C   0  0  0  0  0  0  0  0  0  0  0  0
   65.4006   88.1290   26.4473 H   0  0  0  0  0  0  0  0  0  0  0  0
   66.2469   86.6018   26.0255 H   0  0  0  0  0  0  0  0  0  0  0  0
   64.4517   86.6634   26.0255 H   0  0  0  0  0  0  0  0  0  0  0  0
   64.8339   87.3156   29.9239 H   0  0  0  0  0  0  0  0  0  0  0  0
   64.9926   88.6061   28.6845 H   0  0  0  0  0  0  0  0  0  0  0  0
   63.5520   87.5331   28.6845 H   0  0  0  0  0  0  0  0  0  0  0  0
   66.4123   84.8872   27.5693 H   0  0  0  0  0  0  0  0  0  0  0  0
   66.7580   85.3560   30.2140 H   0  0  0  0  0  0  0  0  0  0  0  0
   66.7560   82.6631   30.9110 H   0  0  0  0  0  0  0  0  0  0  0  0
   65.1884   81.0724   32.0088 H   0  0  0  0  0  0  0  0  0  0  0  0
   62.7424   81.5282   32.0217 H   0  0  0  0  0  0  0  0  0  0  0  0
   61.3300   84.6770   30.9460 H   0  0  0  0  0  0  0  0  0  0  0  0
   60.0170   83.3850   32.2300 H   0  0  0  0  0  0  0  0  0  0  0  0
   59.1555   80.9439   32.7317 H   0  0  0  0  0  0  0  0  0  0  0  0
   57.9499   79.1221   31.5543 H   0  0  0  0  0  0  0  0  0  0  0  0
   58.4560   78.1240   28.3190 H   0  0  0  0  0  0  0  0  0  0  0  0
   54.1585   76.5773   30.1082 H   0  0  0  0  0  0  0  0  0  0  0  0
   53.2309   77.3470   25.2354 H   0  0  0  0  0  0  0  0  0  0  0  0
   52.8470   82.5661   24.5921 H   0  0  0  0  0  0  0  0  0  0  0  0
   53.8919   81.9522   23.2663 H   0  0  0  0  0  0  0  0  0  0  0  0
   52.1333   81.5866   23.2663 H   0  0  0  0  0  0  0  0  0  0  0  0
   54.6045   81.2593   27.6509 H   0  0  0  0  0  0  0  0  0  0  0  0
   52.9688   82.7333   27.9763 H   0  0  0  0  0  0  0  0  0  0  0  0
   53.3578   83.5757   26.4382 H   0  0  0  0  0  0  0  0  0  0  0  0
   52.2192   82.1864   26.4382 H   0  0  0  0  0  0  0  0  0  0  0  0
   56.1536   82.7105   26.9771 H   0  0  0  0  0  0  0  0  0  0  0  0
   56.1307   81.6614   25.5191 H   0  0  0  0  0  0  0  0  0  0  0  0
   55.2356   83.2188   25.5191 H   0  0  0  0  0  0  0  0  0  0  0  0
   59.3073   80.6790   27.7733 H   0  0  0  0  0  0  0  0  0  0  0  0
   60.5151   82.4997   28.9505 H   0  0  0  0  0  0  0  0  0  0  0  0
   63.4208   85.1671   29.8099 H   0  0  0  0  0  0  0  0  0  0  0  0
  1  2  1  0
  2  3  1  0
  2  4  2  3
  4  5  1  0
  5  6  1  0
  6  7  1  0
  7  8  2  0
  8  9  1  0
  9 10  2  0
 10 11  1  0
 11 12  1  0
 12 13  1  0
 13 14  1  0
 14 15  2  0
 15 16  1  0
 16 17  1  0
 17 18  1  0
 18 19  2  0
 19 20  1  0
 20 21  2  0
 21 22  1  0
 21 23  1  0
 23 24  1  0
 24 25  2  0
 25 26  1  0
 26 27  2  0
 27 28  1  0
 27 29  1  0
 29 30  1  0
 30 31  1  0
 30 32  1  0
 23 33  2  0
 16 34  2  0
 34 35  1  0
 10 36  1  0
 36  6  2  0
 35 13  2  0
 33 18  1  0
 29 24  1  0
  1 37  1  0
  1 38  1  0
  1 39  1  0
  3 40  1  0
  3 41  1  0
  3 42  1  0
  4 43  1  0
  5 44  1  0
  7 45  1  0
  8 46  1  0
  9 47  1  0
 11 48  1  0
 12 49  1  0
 14 50  1  0
 15 51  1  0
 17 52  1  0
 20 53  1  0
 25 54  1  0
 28 55  1  0
 28 56  1  0
 28 57  1  0
 30 58  1  0
 31 59  1  0
 31 60  1  0
 31 61  1  0
 32 62  1  0
 32 63  1  0
 32 64  1  0
 34 65  1  0
 35 66  1  0
 36 67  1  0
M  END
>  <meeko>  (1) 
{"is_sidechain": false}

>  <smiles>  (1) 
CC(C)=CNc1cccc(NNc2ccc(Nc3ncc(F)c(-c4cnc(C)n4C(C)C)n3)cc2)c1

>  <vina_score>  (1) 
-9.418

>  <job_id>  (1) 
5fae3c81b2227e7e

$$$$
