
     RDKit          3D

 45 48  0  0  0  0  0  0  0  0999 V2000
   48.9410   80.9820   22.7990 N   0  0  0  0  0  0  0  0  0  0  0  0
   50.2780   81.2490   22.5950 C   0  0  0  0  0  0  0  0  0  0  0  0
   50.6240   81.7980   21.4310 N   0  0  0  0  0  0  0  0  0  0  0  0
   51.9330   82.0330   21.2510 C   0  0  0  0  0  0  0  0  0  0  0  0
   52.8940   81.7300   22.1850 C   0  0  0  0  0  0  0  0  0  0  0  0
   52.4450   81.1510   23.3560 C   0  0  0  0  0  0  0  0  0  0  0  0
   53.3510   80.7580   24.4580 C   0  0  0  0  0  0  0  0  0  0  0  0
   53.3850   79.4510   24.9730 C   0  0  0  0  0  0  0  0  0  0  0  0
   54.2480   79.0990   26.0210 C   0  0  0  0  0  0  0  0  0  0  0  0
   55.1160   80.0410   26.5870 C   0  0  0  0  0  0  0  0  0  0  0  0
   56.0020   79.6540   27.6880 C   0  0  0  0  0  0  0  0  0  0  0  0
   55.8920   78.6120   28.5880 C   0  0  0  0  0  0  0  0  0  0  0  0
   56.9140   78.4930   29.5080 N   0  0  0  0  0  0  0  0  0  0  0  0
   57.8070   79.4390   29.3280 C   0  0  0  0  0  0  0  0  0  0  0  0
   58.9080   79.4820   30.1210 N   0  0  0  0  0  0  0  0  0  0  0  0
   59.1250   80.4160   31.2250 C   0  0  0  0  0  0  0  0  0  0  0  0
   59.7190   81.7520   30.7770 C   0  0  0  0  0  0  0  0  0  0  0  0
   59.9730   82.6460   31.9890 C   0  0  0  0  0  0  0  0  0  0  0  0
   58.7630   82.8350   32.7930 N   0  0  0  0  0  0  0  0  0  0  0  0
   58.2330   81.5570   33.2710 C   0  0  0  0  0  0  0  0  0  0  0  0
   57.9010   80.6070   32.1210 C   0  0  0  0  0  0  0  0  0  0  0  0
   57.4600   80.4970   28.0160 S   0  0  0  0  0  0  0  0  0  0  0  0
   55.0950   81.3440   26.0800 C   0  0  0  0  0  0  0  0  0  0  0  0
   54.2310   81.6930   25.0330 C   0  0  0  0  0  0  0  0  0  0  0  0
   51.1320   80.8930   23.5570 N   0  0  0  0  0  0  0  0  0  0  0  0
   48.6950   80.1020   22.3670 H   0  0  0  0  0  0  0  0  0  0  0  0
   48.3900   81.7930   22.5560 H   0  0  0  0  0  0  0  0  0  0  0  0
   52.2538   82.4930   20.3047 H   0  0  0  0  0  0  0  0  0  0  0  0
   53.9602   81.9367   22.0102 H   0  0  0  0  0  0  0  0  0  0  0  0
   52.7198   78.6868   24.5446 H   0  0  0  0  0  0  0  0  0  0  0  0
   54.2430   78.0678   26.4040 H   0  0  0  0  0  0  0  0  0  0  0  0
   55.0393   77.9173   28.5724 H   0  0  0  0  0  0  0  0  0  0  0  0
   59.2060   78.5380   30.3570 H   0  0  0  0  0  0  0  0  0  0  0  0
   59.8857   79.9277   31.8518 H   0  0  0  0  0  0  0  0  0  0  0  0
   60.6691   81.5704   30.2533 H   0  0  0  0  0  0  0  0  0  0  0  0
   59.0096   82.2533   30.1021 H   0  0  0  0  0  0  0  0  0  0  0  0
   60.7480   82.1819   32.6168 H   0  0  0  0  0  0  0  0  0  0  0  0
   60.2960   83.6318   31.6231 H   0  0  0  0  0  0  0  0  0  0  0  0
   58.0540   83.3020   32.2260 H   0  0  0  0  0  0  0  0  0  0  0  0
   58.9842   81.0813   33.9186 H   0  0  0  0  0  0  0  0  0  0  0  0
   57.3029   81.7604   33.8220 H   0  0  0  0  0  0  0  0  0  0  0  0
   57.5950   79.6331   32.5308 H   0  0  0  0  0  0  0  0  0  0  0  0
   57.0827   81.0369   31.5246 H   0  0  0  0  0  0  0  0  0  0  0  0
   55.7647   82.1044   26.5081 H   0  0  0  0  0  0  0  0  0  0  0  0
   54.2412   82.7245   24.6511 H   0  0  0  0  0  0  0  0  0  0  0  0
  1  2  1  0
  2  3  2  0
  3  4  1  0
  4  5  2  0
  5  6  1  0
  6  7  1  0
  7  8  1  0
  8  9  2  0
  9 10  1  0
 10 11  1  0
 11 12  2  0
 12 13  1  0
 13 14  2  0
 14 15  1  0
 15 16  1  0
 16 17  1  0
 17 18  1  0
 18 19  1  0
 19 20  1  0
 20 21  1  0
 14 22  1  0
 10 23  2  0
 23 24  1  0
  6 25  2  0
 25  2  1  0
 24  7  2  0
 22 11  1  0
 21 16  1  0
  1 26  1  0
  1 27  1  0
  4 28  1  0
  5 29  1  0
  8 30  1  0
  9 31  1  0
 12 32  1  0
 15 33  1  0
 16 34  1  0
 17 35  1  0
 17 36  1  0
 18 37  1  0
 18 38  1  0
 19 39  1  0
 20 40  1  0
 20 41  1  0
 21 42  1  0
 21 43  1  0
 23 44  1  0
 24 45  1  0
M  END
>  <meeko>  (1) 
{"is_sidechain": false}

>  <smiles>  (1) 
Nc1nccc(-c2ccc(-c3cnc(NC4CCNCC4)s3)cc2)n1

>  <vina_score>  (1) 
-8.108

>  <job_id>  (1) 
5fafeb817d46053c

$$$$
