
     RDKit          3D

 41 42  0  0  0  0  0  0  0  0999 V2000
   53.5610   81.9310   25.4480 C   0  0  0  0  0  0  0  0  0  0  0  0
   54.7210   81.3710   26.2620 C   0  0  2  0  0  0  0  0  0  0  0  0
   55.9170   82.0270   25.7740 O   0  0  0  0  0  0  0  0  0  0  0  0
   56.6770   82.5540   26.9090 N   0  0  0  0  0  0  0  0  0  0  0  0
   54.8190   79.9600   26.0320 O   0  0  0  0  0  0  0  0  0  0  0  0
   55.2090   79.2280   27.1300 C   0  0  0  0  0  0  0  0  0  0  0  0
   56.4200   79.4650   27.6730 N   0  0  0  0  0  0  0  0  0  0  0  0
   56.7550   78.7680   28.7680 C   0  0  0  0  0  0  0  0  0  0  0  0
   58.0200   79.0440   29.2770 N   0  0  0  0  0  0  0  0  0  0  0  0
   58.5640   80.1010   30.0170 C   0  0  0  0  0  0  0  0  0  0  0  0
   58.1950   80.2310   31.3680 C   0  0  0  0  0  0  0  0  0  0  0  0
   58.6930   81.2650   32.1660 C   0  0  0  0  0  0  0  0  0  0  0  0
   59.5660   82.1980   31.6090 C   0  0  0  0  0  0  0  0  0  0  0  0
   60.2240   83.5060   32.6160 S   0  0  0  0  0  0  0  0  0  0  0  0
   60.0620   83.1020   34.0050 O   0  0  0  0  0  0  0  0  0  0  0  0
   61.5570   83.8060   32.1130 O   0  0  0  0  0  0  0  0  0  0  0  0
   59.1220   84.8830   32.2620 C   0  0  0  0  0  0  0  0  0  0  0  0
   59.3420   85.4300   31.0320 F   0  0  0  0  0  0  0  0  0  0  0  0
   57.8070   84.5230   32.2880 F   0  0  0  0  0  0  0  0  0  0  0  0
   59.9610   82.0860   30.2770 C   0  0  0  0  0  0  0  0  0  0  0  0
   59.4540   81.0450   29.4900 C   0  0  0  0  0  0  0  0  0  0  0  0
   55.9370   77.8720   29.3340 N   0  0  0  0  0  0  0  0  0  0  0  0
   54.7300   77.6780   28.7690 C   0  0  0  0  0  0  0  0  0  0  0  0
   54.3010   78.3430   27.6480 C   0  0  0  0  0  0  0  0  0  0  0  0
   52.9620   78.1210   27.0530 C   0  0  0  0  0  0  0  0  0  0  0  0
   52.2410   79.2640   26.8960 F   0  0  0  0  0  0  0  0  0  0  0  0
   53.0250   77.5630   25.8090 F   0  0  0  0  0  0  0  0  0  0  0  0
   52.1840   77.2750   27.7840 F   0  0  0  0  0  0  0  0  0  0  0  0
   52.7829   82.3066   26.1288 H   0  0  0  0  0  0  0  0  0  0  0  0
   53.9218   82.7542   24.8138 H   0  0  0  0  0  0  0  0  0  0  0  0
   53.1409   81.1365   24.8138 H   0  0  0  0  0  0  0  0  0  0  0  0
   54.5824   81.5427   27.3396 H   0  0  0  0  0  0  0  0  0  0  0  0
   57.4750   82.9750   26.4310 H   0  0  0  0  0  0  0  0  0  0  0  0
   57.0260   81.6890   27.3270 H   0  0  0  0  0  0  0  0  0  0  0  0
   58.6490   78.2980   29.0200 H   0  0  0  0  0  0  0  0  0  0  0  0
   57.4981   79.5018   31.8070 H   0  0  0  0  0  0  0  0  0  0  0  0
   58.3988   81.3416   33.2232 H   0  0  0  0  0  0  0  0  0  0  0  0
   59.3426   85.6110   33.0566 H   0  0  0  0  0  0  0  0  0  0  0  0
   60.6671   82.8114   29.8466 H   0  0  0  0  0  0  0  0  0  0  0  0
   59.7609   80.9671   28.4366 H   0  0  0  0  0  0  0  0  0  0  0  0
   54.0510   76.9465   29.2314 H   0  0  0  0  0  0  0  0  0  0  0  0
  1  2  1  0
  2  3  1  0
  3  4  1  0
  2  5  1  0
  5  6  1  0
  6  7  2  0
  7  8  1  0
  8  9  1  0
  9 10  1  0
 10 11  1  0
 11 12  2  0
 12 13  1  0
 13 14  1  0
 14 15  2  0
 14 16  2  0
 14 17  1  0
 17 18  1  0
 17 19  1  0
 13 20  2  0
 20 21  1  0
  8 22  2  0
 22 23  1  0
 23 24  2  0
 24 25  1  0
 25 26  1  0
 25 27  1  0
 25 28  1  0
 24  6  1  0
 21 10  2  0
  1 29  1  0
  1 30  1  0
  1 31  1  0
  2 32  1  1
  4 33  1  0
  4 34  1  0
  9 35  1  0
 11 36  1  0
 12 37  1  0
 17 38  1  0
 20 39  1  0
 21 40  1  0
 23 41  1  0
M  END
>  <meeko>  (1) 
{"is_sidechain": false}

>  <smiles>  (1) 
C[C@H](ON)Oc1nc(Nc2ccc(S(=O)(=O)C(F)F)cc2)ncc1C(F)(F)F

>  <vina_score>  (1) 
-7.792

>  <job_id>  (1) 
5fc1ba1585a60f8c

$$$$
