
     RDKit          3D

 46 48  0  0  0  0  0  0  0  0999 V2000
   52.1850   75.5820   26.6670 C   0  0  0  0  0  0  0  0  0  0  0  0
   52.7700   75.6500   27.9930 N   0  0  0  0  0  0  0  0  0  0  0  0
   53.8120   76.5470   28.2420 C   0  0  0  0  0  0  0  0  0  0  0  0
   54.8100   76.1760   29.1530 C   0  0  0  0  0  0  0  0  0  0  0  0
   55.8480   77.0520   29.4980 C   0  0  0  0  0  0  0  0  0  0  0  0
   55.9090   78.3450   28.9650 C   0  0  0  0  0  0  0  0  0  0  0  0
   56.9960   79.2680   29.3260 C   0  0  0  0  0  0  0  0  0  0  0  0
   57.6130   80.0740   28.3510 C   0  0  0  0  0  0  0  0  0  0  0  0
   58.6460   80.9540   28.6900 C   0  0  0  0  0  0  0  0  0  0  0  0
   59.0680   81.0480   30.0180 C   0  0  0  0  0  0  0  0  0  0  0  0
   60.1700   81.9570   30.4040 C   0  0  0  0  0  0  0  0  0  0  0  0
   61.3220   81.5490   30.2730 O   0  0  0  0  0  0  0  0  0  0  0  0
   59.8590   83.2220   30.8880 N   0  0  0  0  0  0  0  0  0  0  0  0
   60.9610   84.1390   31.1850 C   0  0  0  0  0  0  0  0  0  0  0  0
   60.4810   85.5990   31.2410 C   0  0  0  0  0  0  0  0  0  0  0  0
   59.4430   85.8420   32.2650 N   0  0  0  0  0  0  0  0  0  0  0  0
   58.6360   87.0080   31.9170 C   0  0  0  0  0  0  0  0  0  0  0  0
   58.6140   84.6490   32.5210 C   0  0  0  0  0  0  0  0  0  0  0  0
   58.5310   83.6410   31.3570 C   0  0  0  0  0  0  0  0  0  0  0  0
   58.4890   80.2380   30.9980 C   0  0  0  0  0  0  0  0  0  0  0  0
   57.4550   79.3630   30.6520 C   0  0  0  0  0  0  0  0  0  0  0  0
   54.8870   78.7320   28.0870 C   0  0  0  0  0  0  0  0  0  0  0  0
   53.8510   77.8520   27.7440 C   0  0  0  0  0  0  0  0  0  0  0  0
   51.0957   75.4554   26.7529 H   0  0  0  0  0  0  0  0  0  0  0  0
   52.4042   76.5117   26.1214 H   0  0  0  0  0  0  0  0  0  0  0  0
   52.6116   74.7274   26.1214 H   0  0  0  0  0  0  0  0  0  0  0  0
   52.9610   74.7320   28.3860 H   0  0  0  0  0  0  0  0  0  0  0  0
   54.7779   75.1748   29.6075 H   0  0  0  0  0  0  0  0  0  0  0  0
   56.6273   76.7182   30.1989 H   0  0  0  0  0  0  0  0  0  0  0  0
   57.2774   80.0108   27.3054 H   0  0  0  0  0  0  0  0  0  0  0  0
   59.1241   81.5696   27.9138 H   0  0  0  0  0  0  0  0  0  0  0  0
   61.3981   83.8691   32.1577 H   0  0  0  0  0  0  0  0  0  0  0  0
   61.7077   84.0522   30.3819 H   0  0  0  0  0  0  0  0  0  0  0  0
   61.3460   86.2411   31.4635 H   0  0  0  0  0  0  0  0  0  0  0  0
   60.0301   85.8279   30.2641 H   0  0  0  0  0  0  0  0  0  0  0  0
   58.2927   87.5041   32.8368 H   0  0  0  0  0  0  0  0  0  0  0  0
   59.2422   87.7103   31.3260 H   0  0  0  0  0  0  0  0  0  0  0  0
   57.7652   86.6881   31.3260 H   0  0  0  0  0  0  0  0  0  0  0  0
   59.0317   84.1261   33.3940 H   0  0  0  0  0  0  0  0  0  0  0  0
   57.5897   85.0185   32.6765 H   0  0  0  0  0  0  0  0  0  0  0  0
   57.9790   82.7523   31.6970 H   0  0  0  0  0  0  0  0  0  0  0  0
   58.0181   84.1354   30.5189 H   0  0  0  0  0  0  0  0  0  0  0  0
   58.8452   80.2885   32.0375 H   0  0  0  0  0  0  0  0  0  0  0  0
   56.9925   78.7381   31.4302 H   0  0  0  0  0  0  0  0  0  0  0  0
   54.8982   79.7453   27.6591 H   0  0  0  0  0  0  0  0  0  0  0  0
   53.0530   78.1956   27.0694 H   0  0  0  0  0  0  0  0  0  0  0  0
  1  2  1  0
  2  3  1  0
  3  4  1  0
  4  5  2  0
  5  6  1  0
  6  7  1  0
  7  8  1  0
  8  9  2  0
  9 10  1  0
 10 11  1  0
 11 12  2  0
 11 13  1  0
 13 14  1  0
 14 15  1  0
 15 16  1  0
 16 17  1  0
 16 18  1  0
 18 19  1  0
 10 20  2  0
 20 21  1  0
  6 22  2  0
 22 23  1  0
 23  3  2  0
 21  7  2  0
 19 13  1  0
  1 24  1  0
  1 25  1  0
  1 26  1  0
  2 27  1  0
  4 28  1  0
  5 29  1  0
  8 30  1  0
  9 31  1  0
 14 32  1  0
 14 33  1  0
 15 34  1  0
 15 35  1  0
 17 36  1  0
 17 37  1  0
 17 38  1  0
 18 39  1  0
 18 40  1  0
 19 41  1  0
 19 42  1  0
 20 43  1  0
 21 44  1  0
 22 45  1  0
 23 46  1  0
M  END
>  <meeko>  (1) 
{"is_sidechain": false}

>  <smiles>  (1) 
CNc1ccc(-c2ccc(C(=O)N3CCN(C)CC3)cc2)cc1

>  <vina_score>  (1) 
-7.574

>  <job_id>  (1) 
60201560f90fe289

$$$$
