
     RDKit          3D

 40 41  0  0  0  0  0  0  0  0999 V2000
   51.9310   75.3570   26.1740 C   0  0  0  0  0  0  0  0  0  0  0  0
   52.1850   76.7470   26.0140 O   0  0  0  0  0  0  0  0  0  0  0  0
   53.1410   77.2960   26.8220 C   0  0  0  0  0  0  0  0  0  0  0  0
   53.5750   76.7900   28.0440 C   0  0  0  0  0  0  0  0  0  0  0  0
   54.5810   77.4430   28.7690 C   0  0  0  0  0  0  0  0  0  0  0  0
   55.1630   78.6220   28.2940 C   0  0  0  0  0  0  0  0  0  0  0  0
   56.2270   79.2730   28.9650 N   0  0  0  0  0  0  0  0  0  0  0  0
   57.5840   79.0830   28.8040 C   0  0  0  0  0  0  0  0  0  0  0  0
   58.1180   78.2070   28.1330 O   0  0  0  0  0  0  0  0  0  0  0  0
   58.4540   80.0250   29.5700 C   0  0  0  0  0  0  0  0  0  0  0  0
   59.2600   80.9810   28.9370 C   0  0  0  0  0  0  0  0  0  0  0  0
   60.0580   81.8380   29.7000 C   0  0  0  0  0  0  0  0  0  0  0  0
   60.0620   81.7390   31.0910 C   0  0  0  0  0  0  0  0  0  0  0  0
   59.2750   80.7790   31.7260 C   0  0  0  0  0  0  0  0  0  0  0  0
   58.4760   79.9210   30.9680 C   0  0  0  0  0  0  0  0  0  0  0  0
   54.6860   79.1560   27.0790 C   0  0  0  0  0  0  0  0  0  0  0  0
   55.2500   80.4220   26.5350 C   0  0  0  0  0  0  0  0  0  0  0  0
   56.4250   80.4080   26.1630 O   0  0  0  0  0  0  0  0  0  0  0  0
   54.4550   81.5650   26.4770 N   0  0  0  0  0  0  0  0  0  0  0  0
   53.3100   81.8120   27.3460 C   0  0  0  0  0  0  0  0  0  0  0  0
   54.9740   82.7230   25.7700 C   0  0  0  0  0  0  0  0  0  0  0  0
   53.7060   78.4760   26.3380 C   0  0  0  0  0  0  0  0  0  0  0  0
   51.8865   75.1134   27.2458 H   0  0  0  0  0  0  0  0  0  0  0  0
   50.9715   75.1027   25.7000 H   0  0  0  0  0  0  0  0  0  0  0  0
   52.7385   74.7798   25.7000 H   0  0  0  0  0  0  0  0  0  0  0  0
   53.1245   75.8697   28.4441 H   0  0  0  0  0  0  0  0  0  0  0  0
   54.9181   77.0210   29.7273 H   0  0  0  0  0  0  0  0  0  0  0  0
   55.9270   79.9760   29.6410 H   0  0  0  0  0  0  0  0  0  0  0  0
   59.2645   81.0568   27.8396 H   0  0  0  0  0  0  0  0  0  0  0  0
   60.6846   82.5926   29.2020 H   0  0  0  0  0  0  0  0  0  0  0  0
   60.6870   82.4193   31.6882 H   0  0  0  0  0  0  0  0  0  0  0  0
   59.2837   80.6978   32.8230 H   0  0  0  0  0  0  0  0  0  0  0  0
   57.8608   79.1597   31.4700 H   0  0  0  0  0  0  0  0  0  0  0  0
   53.6262   81.7438   28.3974 H   0  0  0  0  0  0  0  0  0  0  0  0
   52.9095   82.8172   27.1480 H   0  0  0  0  0  0  0  0  0  0  0  0
   52.5307   81.0613   27.1480 H   0  0  0  0  0  0  0  0  0  0  0  0
   55.3114   83.4759   26.4975 H   0  0  0  0  0  0  0  0  0  0  0  0
   55.8214   82.4177   25.1386 H   0  0  0  0  0  0  0  0  0  0  0  0
   54.1822   83.1523   25.1386 H   0  0  0  0  0  0  0  0  0  0  0  0
   53.3809   78.8775   25.3669 H   0  0  0  0  0  0  0  0  0  0  0  0
  1  2  1  0
  2  3  1  0
  3  4  1  0
  4  5  2  0
  5  6  1  0
  6  7  1  0
  7  8  1  0
  8  9  2  0
  8 10  1  0
 10 11  2  0
 11 12  1  0
 12 13  2  0
 13 14  1  0
 14 15  2  0
  6 16  2  0
 16 17  1  0
 17 18  2  0
 17 19  1  0
 19 20  1  0
 19 21  1  0
 16 22  1  0
 22  3  2  0
 15 10  1  0
  1 23  1  0
  1 24  1  0
  1 25  1  0
  4 26  1  0
  5 27  1  0
  7 28  1  0
 11 29  1  0
 12 30  1  0
 13 31  1  0
 14 32  1  0
 15 33  1  0
 20 34  1  0
 20 35  1  0
 20 36  1  0
 21 37  1  0
 21 38  1  0
 21 39  1  0
 22 40  1  0
M  END
>  <meeko>  (1) 
{"is_sidechain": false}

>  <smiles>  (1) 
COc1ccc(NC(=O)c2ccccc2)c(C(=O)N(C)C)c1

>  <vina_score>  (1) 
-7.498

>  <job_id>  (1) 
6091faf27da8a0ee

$$$$
