
     RDKit          3D

 43 45  0  0  0  0  0  0  0  0999 V2000
   56.4020   79.9160   27.7410 O   0  0  0  0  0  0  0  0  0  0  0  0
   56.3470   79.0780   28.6330 C   0  0  0  0  0  0  0  0  0  0  0  0
   57.1120   79.0450   29.7840 N   0  0  0  0  0  0  0  0  0  0  0  0
   58.1660   79.9190   30.1270 C   0  0  0  0  0  0  0  0  0  0  0  0
   59.0760   80.4520   29.2290 C   0  0  0  0  0  0  0  0  0  0  0  0
   60.0880   81.3050   29.6890 C   0  0  0  0  0  0  0  0  0  0  0  0
   60.1890   81.6360   31.0420 C   0  0  0  0  0  0  0  0  0  0  0  0
   61.1910   82.4810   31.5210 N   0  0  0  0  0  0  0  0  0  0  0  0
   61.5530   82.3280   32.9310 C   0  0  0  0  0  0  0  0  0  0  0  0
   63.0620   82.4190   33.1700 C   0  0  0  0  0  0  0  0  0  0  0  0
   63.8760   82.0290   31.9380 C   0  0  0  0  0  0  0  0  0  0  0  0
   63.8280   83.0250   30.7760 C   0  0  0  0  0  0  0  0  0  0  0  0
   62.8480   84.1980   30.8600 C   0  0  0  0  0  0  0  0  0  0  0  0
   61.3720   83.8140   30.9420 C   0  0  0  0  0  0  0  0  0  0  0  0
   59.3120   81.0990   31.9190 N   0  0  0  0  0  0  0  0  0  0  0  0
   58.3400   80.2760   31.4580 C   0  0  0  0  0  0  0  0  0  0  0  0
   55.3330   77.9910   28.5250 C   0  0  0  0  0  0  0  0  0  0  0  0
   55.5010   76.7600   29.1730 C   0  0  0  0  0  0  0  0  0  0  0  0
   54.5260   75.7680   29.0450 C   0  0  0  0  0  0  0  0  0  0  0  0
   53.3910   75.9980   28.2670 C   0  0  0  0  0  0  0  0  0  0  0  0
   53.2310   77.2150   27.6050 C   0  0  0  0  0  0  0  0  0  0  0  0
   54.2020   78.2090   27.7280 C   0  0  0  0  0  0  0  0  0  0  0  0
   56.8510   78.3700   30.4910 H   0  0  0  0  0  0  0  0  0  0  0  0
   59.0045   80.2066   28.1591 H   0  0  0  0  0  0  0  0  0  0  0  0
   60.8136   81.7200   28.9739 H   0  0  0  0  0  0  0  0  0  0  0  0
   61.0573   83.1218   33.5091 H   0  0  0  0  0  0  0  0  0  0  0  0
   61.2274   81.3267   33.2494 H   0  0  0  0  0  0  0  0  0  0  0  0
   63.3134   83.4539   33.4453 H   0  0  0  0  0  0  0  0  0  0  0  0
   63.3153   81.7125   33.9742 H   0  0  0  0  0  0  0  0  0  0  0  0
   64.9260   81.9179   32.2464 H   0  0  0  0  0  0  0  0  0  0  0  0
   63.4254   81.0998   31.5591 H   0  0  0  0  0  0  0  0  0  0  0  0
   64.8367   83.4513   30.6717 H   0  0  0  0  0  0  0  0  0  0  0  0
   63.4636   82.4298   29.9258 H   0  0  0  0  0  0  0  0  0  0  0  0
   63.0965   84.7842   31.7570 H   0  0  0  0  0  0  0  0  0  0  0  0
   62.9638   84.7576   29.9201 H   0  0  0  0  0  0  0  0  0  0  0  0
   60.8465   84.5494   31.5689 H   0  0  0  0  0  0  0  0  0  0  0  0
   60.9631   83.8030   29.9209 H   0  0  0  0  0  0  0  0  0  0  0  0
   57.6356   79.8591   32.1928 H   0  0  0  0  0  0  0  0  0  0  0  0
   56.3988   76.5753   29.7812 H   0  0  0  0  0  0  0  0  0  0  0  0
   54.6533   74.8036   29.5586 H   0  0  0  0  0  0  0  0  0  0  0  0
   52.6208   75.2179   28.1756 H   0  0  0  0  0  0  0  0  0  0  0  0
   52.3391   77.3911   26.9858 H   0  0  0  0  0  0  0  0  0  0  0  0
   54.0793   79.1653   27.1984 H   0  0  0  0  0  0  0  0  0  0  0  0
  1  2  2  0
  2  3  1  0
  3  4  1  0
  4  5  2  0
  5  6  1  0
  6  7  2  0
  7  8  1  0
  8  9  1  0
  9 10  1  0
 10 11  1  0
 11 12  1  0
 12 13  1  0
 13 14  1  0
  7 15  1  0
 15 16  2  0
  2 17  1  0
 17 18  2  0
 18 19  1  0
 19 20  2  0
 20 21  1  0
 21 22  2  0
 16  4  1  0
 22 17  1  0
 14  8  1  0
  3 23  1  0
  5 24  1  0
  6 25  1  0
  9 26  1  0
  9 27  1  0
 10 28  1  0
 10 29  1  0
 11 30  1  0
 11 31  1  0
 12 32  1  0
 12 33  1  0
 13 34  1  0
 13 35  1  0
 14 36  1  0
 14 37  1  0
 16 38  1  0
 18 39  1  0
 19 40  1  0
 20 41  1  0
 21 42  1  0
 22 43  1  0
M  END
>  <meeko>  (1) 
{"is_sidechain": false}

>  <smiles>  (1) 
O=C(Nc1ccc(N2CCCCCC2)nc1)c1ccccc1

>  <vina_score>  (1) 
-5.594

>  <job_id>  (1) 
60dd46f85a171ed5

$$$$
