
     RDKit          3D

 49 51  0  0  0  0  0  0  0  0999 V2000
   53.7230   75.2960   28.3590 C   0  0  0  0  0  0  0  0  0  0  0  0
   54.5600   76.0020   29.2660 O   0  0  0  0  0  0  0  0  0  0  0  0
   55.0150   77.2290   28.8650 C   0  0  0  0  0  0  0  0  0  0  0  0
   56.1100   77.9090   29.3950 C   0  0  0  0  0  0  0  0  0  0  0  0
   56.4900   79.1790   28.9100 C   0  0  0  0  0  0  0  0  0  0  0  0
   57.6600   79.8420   29.4970 C   0  0  0  0  0  0  0  0  0  0  0  0
   57.8690   79.8680   30.8770 C   0  0  0  0  0  0  0  0  0  0  0  0
   59.0060   80.5010   31.3760 C   0  0  0  0  0  0  0  0  0  0  0  0
   59.9010   81.0850   30.4890 C   0  0  0  0  0  0  0  0  0  0  0  0
   59.6240   81.0090   29.1350 C   0  0  0  0  0  0  0  0  0  0  0  0
   58.5320   80.4000   28.6240 N   0  0  0  0  0  0  0  0  0  0  0  0
   55.7260   79.7550   27.8720 C   0  0  0  0  0  0  0  0  0  0  0  0
   56.0480   80.9970   27.3710 O   0  0  0  0  0  0  0  0  0  0  0  0
   56.3180   80.9450   25.9710 C   0  0  0  0  0  0  0  0  0  0  0  0
   54.6360   79.0620   27.2940 C   0  0  0  0  0  0  0  0  0  0  0  0
   53.8360   79.5440   26.2270 N   0  0  0  0  0  0  0  0  0  0  0  0
   53.4000   78.4430   25.3470 C   0  0  0  0  0  0  0  0  0  0  0  0
   53.6510   78.7650   23.8740 C   0  0  0  0  0  0  0  0  0  0  0  0
   52.7810   79.8570   23.2730 C   0  0  0  0  0  0  0  0  0  0  0  0
   53.3090   81.1890   23.5560 N   0  0  0  0  0  0  0  0  0  0  0  0
   52.5210   81.9310   24.5450 C   0  0  0  0  0  0  0  0  0  0  0  0
   52.8970   81.8320   26.0310 C   0  0  0  0  0  0  0  0  0  0  0  0
   52.7500   80.4500   26.6670 C   0  0  0  0  0  0  0  0  0  0  0  0
   54.2890   77.8100   27.8250 C   0  0  0  0  0  0  0  0  0  0  0  0
   53.0015   74.6874   28.9238 H   0  0  0  0  0  0  0  0  0  0  0  0
   53.1809   76.0137   27.7258 H   0  0  0  0  0  0  0  0  0  0  0  0
   54.3391   74.6407   27.7258 H   0  0  0  0  0  0  0  0  0  0  0  0
   56.6898   77.4468   30.2075 H   0  0  0  0  0  0  0  0  0  0  0  0
   57.1474   79.3961   31.5601 H   0  0  0  0  0  0  0  0  0  0  0  0
   59.1923   80.5376   32.4595 H   0  0  0  0  0  0  0  0  0  0  0  0
   60.8056   81.5942   30.8527 H   0  0  0  0  0  0  0  0  0  0  0  0
   60.3346   81.4715   28.4342 H   0  0  0  0  0  0  0  0  0  0  0  0
   57.3867   80.7392   25.8111 H   0  0  0  0  0  0  0  0  0  0  0  0
   55.7179   80.1459   25.5113 H   0  0  0  0  0  0  0  0  0  0  0  0
   56.0576   81.9098   25.5113 H   0  0  0  0  0  0  0  0  0  0  0  0
   53.9565   77.5321   25.6129 H   0  0  0  0  0  0  0  0  0  0  0  0
   52.3186   78.2987   25.4876 H   0  0  0  0  0  0  0  0  0  0  0  0
   54.7009   79.0768   23.7718 H   0  0  0  0  0  0  0  0  0  0  0  0
   53.3982   77.8474   23.3226 H   0  0  0  0  0  0  0  0  0  0  0  0
   52.7355   79.7163   22.1830 H   0  0  0  0  0  0  0  0  0  0  0  0
   51.7802   79.7833   23.7235 H   0  0  0  0  0  0  0  0  0  0  0  0
   54.2680   81.1120   23.8990 H   0  0  0  0  0  0  0  0  0  0  0  0
   52.5785   82.9943   24.2693 H   0  0  0  0  0  0  0  0  0  0  0  0
   51.5283   81.4598   24.4948 H   0  0  0  0  0  0  0  0  0  0  0  0
   53.9480   82.1401   26.1338 H   0  0  0  0  0  0  0  0  0  0  0  0
   52.1847   82.4808   26.5618 H   0  0  0  0  0  0  0  0  0  0  0  0
   52.7882   80.5520   27.7616 H   0  0  0  0  0  0  0  0  0  0  0  0
   51.7872   80.0207   26.3529 H   0  0  0  0  0  0  0  0  0  0  0  0
   53.4228   77.2733   27.4107 H   0  0  0  0  0  0  0  0  0  0  0  0
  1  2  1  0
  2  3  1  0
  3  4  2  0
  4  5  1  0
  5  6  1  0
  6  7  2  0
  7  8  1  0
  8  9  2  0
  9 10  1  0
 10 11  2  0
  5 12  2  0
 12 13  1  0
 13 14  1  0
 12 15  1  0
 15 16  1  0
 16 17  1  0
 17 18  1  0
 18 19  1  0
 19 20  1  0
 20 21  1  0
 21 22  1  0
 22 23  1  0
 15 24  2  0
 24  3  1  0
 11  6  1  0
 23 16  1  0
  1 25  1  0
  1 26  1  0
  1 27  1  0
  4 28  1  0
  7 29  1  0
  8 30  1  0
  9 31  1  0
 10 32  1  0
 14 33  1  0
 14 34  1  0
 14 35  1  0
 17 36  1  0
 17 37  1  0
 18 38  1  0
 18 39  1  0
 19 40  1  0
 19 41  1  0
 20 42  1  0
 21 43  1  0
 21 44  1  0
 22 45  1  0
 22 46  1  0
 23 47  1  0
 23 48  1  0
 24 49  1  0
M  END
>  <meeko>  (1) 
{"is_sidechain": false}

>  <smiles>  (1) 
COc1cc(-c2ccccn2)c(OC)c(N2CCCNCCC2)c1

>  <vina_score>  (1) 
-5.134

>  <job_id>  (1) 
61022816f987ac53

$$$$
