
     RDKit          3D

 38 40  0  0  0  0  0  0  0  0999 V2000
   55.9370   76.3010   29.3260 O   0  0  0  0  0  0  0  0  0  0  0  0
   55.6670   77.4870   29.1450 C   0  0  0  0  0  0  0  0  0  0  0  0
   56.7600   78.4730   29.3090 C   0  0  0  0  0  0  0  0  0  0  0  0
   57.0590   78.9420   30.5920 C   0  0  0  0  0  0  0  0  0  0  0  0
   58.0980   79.8570   30.7700 C   0  0  0  0  0  0  0  0  0  0  0  0
   58.8440   80.2870   29.6700 C   0  0  0  0  0  0  0  0  0  0  0  0
   58.5610   79.7990   28.3930 C   0  0  0  0  0  0  0  0  0  0  0  0
   57.5230   78.8850   28.2100 C   0  0  0  0  0  0  0  0  0  0  0  0
   54.4020   77.9380   28.7720 N   0  0  0  0  0  0  0  0  0  0  0  0
   53.3050   77.0520   28.3810 C   0  0  0  0  0  0  0  0  0  0  0  0
   52.8960   77.3210   26.9610 C   0  0  0  0  0  0  0  0  0  0  0  0
   53.3470   78.3550   26.2240 C   0  0  0  0  0  0  0  0  0  0  0  0
   52.9480   78.5990   24.9190 O   0  0  0  0  0  0  0  0  0  0  0  0
   52.8020   79.9050   24.5120 C   0  0  0  0  0  0  0  0  0  0  0  0
   52.9340   80.1570   23.1470 C   0  0  0  0  0  0  0  0  0  0  0  0
   52.7710   81.4540   22.6580 C   0  0  0  0  0  0  0  0  0  0  0  0
   52.4610   82.4950   23.5340 C   0  0  0  0  0  0  0  0  0  0  0  0
   52.3080   82.2390   24.8970 C   0  0  0  0  0  0  0  0  0  0  0  0
   52.4710   80.9420   25.3870 C   0  0  0  0  0  0  0  0  0  0  0  0
   54.2560   79.4050   26.8080 C   0  0  0  0  0  0  0  0  0  0  0  0
   54.2660   79.3250   28.3350 C   0  0  0  0  0  0  0  0  0  0  0  0
   56.4777   78.5913   31.4575 H   0  0  0  0  0  0  0  0  0  0  0  0
   58.3291   80.2390   31.7753 H   0  0  0  0  0  0  0  0  0  0  0  0
   59.6580   81.0133   29.8106 H   0  0  0  0  0  0  0  0  0  0  0  0
   59.1563   80.1351   27.5312 H   0  0  0  0  0  0  0  0  0  0  0  0
   57.3051   78.4899   27.2068 H   0  0  0  0  0  0  0  0  0  0  0  0
   53.6338   76.0062   28.4717 H   0  0  0  0  0  0  0  0  0  0  0  0
   52.4447   77.2362   29.0413 H   0  0  0  0  0  0  0  0  0  0  0  0
   52.1815   76.6285   26.4920 H   0  0  0  0  0  0  0  0  0  0  0  0
   53.1666   79.3337   22.4556 H   0  0  0  0  0  0  0  0  0  0  0  0
   52.8868   81.6555   21.5828 H   0  0  0  0  0  0  0  0  0  0  0  0
   52.3372   83.5182   23.1497 H   0  0  0  0  0  0  0  0  0  0  0  0
   52.0588   83.0596   25.5859 H   0  0  0  0  0  0  0  0  0  0  0  0
   52.3391   80.7373   26.4597 H   0  0  0  0  0  0  0  0  0  0  0  0
   55.2776   79.2475   26.4318 H   0  0  0  0  0  0  0  0  0  0  0  0
   53.8870   80.3972   26.5090 H   0  0  0  0  0  0  0  0  0  0  0  0
   55.1117   79.9117   28.7230 H   0  0  0  0  0  0  0  0  0  0  0  0
   53.3176   79.7285   28.7193 H   0  0  0  0  0  0  0  0  0  0  0  0
  1  2  2  0
  2  3  1  0
  3  4  2  0
  4  5  1  0
  5  6  2  0
  6  7  1  0
  7  8  2  0
  2  9  1  0
  9 10  1  0
 10 11  1  0
 11 12  2  0
 12 13  1  0
 13 14  1  0
 14 15  2  0
 15 16  1  0
 16 17  2  0
 17 18  1  0
 18 19  2  0
 12 20  1  0
 20 21  1  0
  8  3  1  0
 21  9  1  0
 19 14  1  0
  4 22  1  0
  5 23  1  0
  6 24  1  0
  7 25  1  0
  8 26  1  0
 10 27  1  0
 10 28  1  0
 11 29  1  0
 15 30  1  0
 16 31  1  0
 17 32  1  0
 18 33  1  0
 19 34  1  0
 20 35  1  0
 20 36  1  0
 21 37  1  0
 21 38  1  0
M  END
>  <meeko>  (1) 
{"is_sidechain": false}

>  <smiles>  (1) 
O=C(c1ccccc1)N1CC=C(Oc2ccccc2)CC1

>  <vina_score>  (1) 
-7.858

>  <job_id>  (1) 
6140a6f4115b3aa7

$$$$
