
     RDKit          3D

 60 64  0  0  0  0  0  0  0  0999 V2000
   60.0580   80.1830   35.1460 C   0  0  0  0  0  0  0  0  0  0  0  0
   59.7400   81.4630   34.3690 C   0  0  0  0  0  0  0  0  0  0  0  0
   60.8620   82.4890   34.5360 C   0  0  0  0  0  0  0  0  0  0  0  0
   59.4430   81.1870   32.9260 C   0  0  0  0  0  0  0  0  0  0  0  0
   59.4640   79.9280   32.2740 C   0  0  0  0  0  0  0  0  0  0  0  0
   59.1550   80.0000   30.9760 N   0  0  0  0  0  0  0  0  0  0  0  0
   58.9210   81.3190   30.7940 N   0  0  0  0  0  0  0  0  0  0  0  0
   58.5790   81.9330   29.5740 C   0  0  0  0  0  0  0  0  0  0  0  0
   58.3850   81.2350   28.3950 N   0  0  0  0  0  0  0  0  0  0  0  0
   57.6470   79.9860   28.3170 C   0  0  0  0  0  0  0  0  0  0  0  0
   56.3580   80.1350   27.5320 C   0  0  0  0  0  0  0  0  0  0  0  0
   56.2980   81.2500   26.6610 C   0  0  0  0  0  0  0  0  0  0  0  0
   55.2410   81.4370   25.7700 C   0  0  0  0  0  0  0  0  0  0  0  0
   54.2180   80.5050   25.7150 C   0  0  0  0  0  0  0  0  0  0  0  0
   54.2400   79.4040   26.5690 C   0  0  0  0  0  0  0  0  0  0  0  0
   55.2820   79.2160   27.5050 C   0  0  0  0  0  0  0  0  0  0  0  0
   55.1620   78.0770   28.3590 N   0  0  0  0  0  0  0  0  0  0  0  0
   55.9350   77.7010   29.4380 C   0  0  0  0  0  0  0  0  0  0  0  0
   55.4520   76.4980   29.8970 C   0  0  0  0  0  0  0  0  0  0  0  0
   54.3390   76.2410   29.0900 C   0  0  0  0  0  0  0  0  0  0  0  0
   54.1300   77.2030   28.1930 N   0  0  0  0  0  0  0  0  0  0  0  0
   58.4500   83.2320   29.5480 N   0  0  0  0  0  0  0  0  0  0  0  0
   58.6030   83.9230   30.7280 C   0  0  0  0  0  0  0  0  0  0  0  0
   58.3960   85.2600   30.6510 O   0  0  0  0  0  0  0  0  0  0  0  0
   58.7630   86.1290   31.7520 C   0  0  0  0  0  0  0  0  0  0  0  0
   59.5660   87.3240   31.2340 C   0  0  0  0  0  0  0  0  0  0  0  0
   58.7360   88.2000   30.2880 C   0  0  0  0  0  0  0  0  0  0  0  0
   57.2270   88.0820   30.5150 C   0  0  0  0  0  0  0  0  0  0  0  0
   56.9230   87.8940   31.9300 N   0  0  0  0  0  0  0  0  0  0  0  0
   57.4580   86.6120   32.4280 C   0  0  0  0  0  0  0  0  0  0  0  0
   58.9160   83.4190   31.8830 N   0  0  0  0  0  0  0  0  0  0  0  0
   59.0960   82.0740   31.9270 C   0  0  0  0  0  0  0  0  0  0  0  0
   60.0072   80.3873   36.2257 H   0  0  0  0  0  0  0  0  0  0  0  0
   59.3260   79.4044   34.8853 H   0  0  0  0  0  0  0  0  0  0  0  0
   61.0693   79.8375   34.8853 H   0  0  0  0  0  0  0  0  0  0  0  0
   58.8227   81.8944   34.7960 H   0  0  0  0  0  0  0  0  0  0  0  0
   61.0474   82.6585   35.6069 H   0  0  0  0  0  0  0  0  0  0  0  0
   61.7789   82.1104   34.0606 H   0  0  0  0  0  0  0  0  0  0  0  0
   60.5667   83.4360   34.0606 H   0  0  0  0  0  0  0  0  0  0  0  0
   59.7101   78.9859   32.7858 H   0  0  0  0  0  0  0  0  0  0  0  0
   58.1370   81.8840   27.6560 H   0  0  0  0  0  0  0  0  0  0  0  0
   58.2775   79.2313   27.8242 H   0  0  0  0  0  0  0  0  0  0  0  0
   57.3873   79.6806   29.3413 H   0  0  0  0  0  0  0  0  0  0  0  0
   57.1100   81.9916   26.6878 H   0  0  0  0  0  0  0  0  0  0  0  0
   55.2201   82.3201   25.1145 H   0  0  0  0  0  0  0  0  0  0  0  0
   53.3917   80.6333   25.0003 H   0  0  0  0  0  0  0  0  0  0  0  0
   53.4277   78.6643   26.5133 H   0  0  0  0  0  0  0  0  0  0  0  0
   56.7841   78.2619   29.8556 H   0  0  0  0  0  0  0  0  0  0  0  0
   55.8507   75.8783   30.7137 H   0  0  0  0  0  0  0  0  0  0  0  0
   53.7075   75.3454   29.1854 H   0  0  0  0  0  0  0  0  0  0  0  0
   59.3896   85.5879   32.4762 H   0  0  0  0  0  0  0  0  0  0  0  0
   59.8907   87.9331   32.0905 H   0  0  0  0  0  0  0  0  0  0  0  0
   60.4302   86.9383   30.6733 H   0  0  0  0  0  0  0  0  0  0  0  0
   59.0298   89.2495   30.4374 H   0  0  0  0  0  0  0  0  0  0  0  0
   58.9378   87.8526   29.2640 H   0  0  0  0  0  0  0  0  0  0  0  0
   56.7372   89.0012   30.1611 H   0  0  0  0  0  0  0  0  0  0  0  0
   56.8566   87.2085   29.9584 H   0  0  0  0  0  0  0  0  0  0  0  0
   55.9140   87.9090   32.0700 H   0  0  0  0  0  0  0  0  0  0  0  0
   57.6543   86.7218   33.5048 H   0  0  0  0  0  0  0  0  0  0  0  0
   56.6965   85.8541   32.1919 H   0  0  0  0  0  0  0  0  0  0  0  0
  1  2  1  0
  2  3  1  0
  2  4  1  0
  4  5  1  0
  5  6  2  0
  6  7  1  0
  7  8  1  0
  8  9  1  0
  9 10  1  0
 10 11  1  0
 11 12  2  0
 12 13  1  0
 13 14  2  0
 14 15  1  0
 15 16  2  0
 16 17  1  0
 17 18  1  0
 18 19  2  0
 19 20  1  0
 20 21  2  0
  8 22  2  0
 22 23  1  0
 23 24  1  0
 24 25  1  0
 25 26  1  0
 26 27  1  0
 27 28  1  0
 28 29  1  0
 29 30  1  0
 23 31  2  0
 31 32  1  0
 32  4  2  0
 32  7  1  0
 16 11  1  0
 21 17  1  0
 30 25  1  0
  1 33  1  0
  1 34  1  0
  1 35  1  0
  2 36  1  0
  3 37  1  0
  3 38  1  0
  3 39  1  0
  5 40  1  0
  9 41  1  0
 10 42  1  0
 10 43  1  0
 12 44  1  0
 13 45  1  0
 14 46  1  0
 15 47  1  0
 18 48  1  0
 19 49  1  0
 20 50  1  0
 25 51  1  0
 26 52  1  0
 26 53  1  0
 27 54  1  0
 27 55  1  0
 28 56  1  0
 28 57  1  0
 29 58  1  0
 30 59  1  0
 30 60  1  0
M  END
>  <meeko>  (1) 
{"is_sidechain": false}

>  <smiles>  (1) 
CC(C)c1cnn2c(NCc3ccccc3-n3cccn3)nc(OC3CCCNC3)nc12

>  <vina_score>  (1) 
-7.552

>  <job_id>  (1) 
618723f89d94e93e

$$$$
