
     RDKit          3D

 52 56  0  0  0  0  0  0  0  0999 V2000
   62.7230   88.8330   30.3180 C   0  0  0  0  0  0  0  0  0  0  0  0
   63.3430   87.5300   30.2470 N   0  0  0  0  0  0  0  0  0  0  0  0
   63.2320   86.5640   31.2100 C   0  0  0  0  0  0  0  0  0  0  0  0
   63.9750   85.4730   30.8090 C   0  0  0  0  0  0  0  0  0  0  0  0
   64.1330   84.2860   31.5780 C   0  0  0  0  0  0  0  0  0  0  0  0
   63.2510   83.2960   31.8150 C   0  0  0  0  0  0  0  0  0  0  0  0
   61.8950   83.1630   31.4060 C   0  0  0  0  0  0  0  0  0  0  0  0
   61.4780   82.3420   30.3810 C   0  0  0  0  0  0  0  0  0  0  0  0
   60.1200   82.4730   30.2560 N   0  0  0  0  0  0  0  0  0  0  0  0
   59.3120   81.7350   29.2930 C   0  0  0  0  0  0  0  0  0  0  0  0
   59.3100   80.2320   29.5690 C   0  0  0  0  0  0  0  0  0  0  0  0
   59.0400   79.9860   30.9570 O   0  0  0  0  0  0  0  0  0  0  0  0
   58.2230   79.5280   28.7520 C   0  0  0  0  0  0  0  0  0  0  0  0
   58.6980   78.2280   28.3950 O   0  0  0  0  0  0  0  0  0  0  0  0
   59.6370   83.3650   31.1940 C   0  0  0  0  0  0  0  0  0  0  0  0
   58.3310   83.8160   31.4530 C   0  0  0  0  0  0  0  0  0  0  0  0
   58.1420   84.7340   32.4880 C   0  0  0  0  0  0  0  0  0  0  0  0
   59.2140   85.1860   33.2460 C   0  0  0  0  0  0  0  0  0  0  0  0
   60.5110   84.7320   32.9850 C   0  0  0  0  0  0  0  0  0  0  0  0
   60.7380   83.8110   31.9370 C   0  0  0  0  0  0  0  0  0  0  0  0
   63.9490   82.2720   32.6310 C   0  0  0  0  0  0  0  0  0  0  0  0
   63.4970   81.2120   33.0240 O   0  0  0  0  0  0  0  0  0  0  0  0
   65.1950   82.7260   32.8660 N   0  0  0  0  0  0  0  0  0  0  0  0
   65.3990   83.9060   32.2500 C   0  0  0  0  0  0  0  0  0  0  0  0
   66.4500   84.5220   32.2490 O   0  0  0  0  0  0  0  0  0  0  0  0
   64.5470   85.7870   29.5370 C   0  0  0  0  0  0  0  0  0  0  0  0
   65.3930   85.1070   28.6350 C   0  0  0  0  0  0  0  0  0  0  0  0
   65.7930   85.7310   27.4480 C   0  0  0  0  0  0  0  0  0  0  0  0
   65.3710   87.0200   27.1500 C   0  0  0  0  0  0  0  0  0  0  0  0
   64.5390   87.7230   28.0250 C   0  0  0  0  0  0  0  0  0  0  0  0
   64.1400   87.0870   29.2130 C   0  0  0  0  0  0  0  0  0  0  0  0
   62.5875   89.1177   31.3719 H   0  0  0  0  0  0  0  0  0  0  0  0
   63.3657   89.5726   29.8181 H   0  0  0  0  0  0  0  0  0  0  0  0
   61.7437   88.8008   29.8181 H   0  0  0  0  0  0  0  0  0  0  0  0
   62.6517   86.6436   32.1411 H   0  0  0  0  0  0  0  0  0  0  0  0
   62.1232   81.6941   29.7695 H   0  0  0  0  0  0  0  0  0  0  0  0
   58.2773   82.1051   29.3420 H   0  0  0  0  0  0  0  0  0  0  0  0
   59.7484   81.8935   28.2958 H   0  0  0  0  0  0  0  0  0  0  0  0
   60.3002   79.8429   29.2897 H   0  0  0  0  0  0  0  0  0  0  0  0
   58.7800   80.8570   31.3200 H   0  0  0  0  0  0  0  0  0  0  0  0
   57.3067   79.4365   29.3537 H   0  0  0  0  0  0  0  0  0  0  0  0
   57.9949   80.1090   27.8463 H   0  0  0  0  0  0  0  0  0  0  0  0
   58.2130   77.5870   28.9450 H   0  0  0  0  0  0  0  0  0  0  0  0
   57.4804   83.4552   30.8561 H   0  0  0  0  0  0  0  0  0  0  0  0
   57.1294   85.1044   32.7060 H   0  0  0  0  0  0  0  0  0  0  0  0
   59.0418   85.9072   34.0586 H   0  0  0  0  0  0  0  0  0  0  0  0
   61.3533   85.0912   33.5945 H   0  0  0  0  0  0  0  0  0  0  0  0
   65.8990   82.2200   33.3760 H   0  0  0  0  0  0  0  0  0  0  0  0
   65.7375   84.0879   28.8647 H   0  0  0  0  0  0  0  0  0  0  0  0
   66.4477   85.1956   26.7446 H   0  0  0  0  0  0  0  0  0  0  0  0
   65.6962   87.4941   26.2122 H   0  0  0  0  0  0  0  0  0  0  0  0
   64.2059   88.7448   27.7908 H   0  0  0  0  0  0  0  0  0  0  0  0
  1  2  1  0
  2  3  1  0
  3  4  2  0
  4  5  1  0
  5  6  2  0
  6  7  1  0
  7  8  2  0
  8  9  1  0
  9 10  1  0
 10 11  1  0
 11 12  1  0
 11 13  1  0
 13 14  1  0
  9 15  1  0
 15 16  2  0
 16 17  1  0
 17 18  2  0
 18 19  1  0
 19 20  2  0
  6 21  1  0
 21 22  2  0
 21 23  1  0
 23 24  1  0
 24 25  2  0
  4 26  1  0
 26 27  2  0
 27 28  1  0
 28 29  2  0
 29 30  1  0
 30 31  2  0
 31  2  1  0
 24  5  1  0
 31 26  1  0
 20  7  1  0
 20 15  1  0
  1 32  1  0
  1 33  1  0
  1 34  1  0
  3 35  1  0
  8 36  1  0
 10 37  1  0
 10 38  1  0
 11 39  1  0
 12 40  1  0
 13 41  1  0
 13 42  1  0
 14 43  1  0
 16 44  1  0
 17 45  1  0
 18 46  1  0
 19 47  1  0
 23 48  1  0
 27 49  1  0
 28 50  1  0
 29 51  1  0
 30 52  1  0
M  END
>  <meeko>  (1) 
{"is_sidechain": false}

>  <smiles>  (1) 
Cn1cc(C2=C(c3cn(CC(O)CO)c4ccccc34)C(=O)NC2=O)c2ccccc21

>  <vina_score>  (1) 
-6.233

>  <job_id>  (1) 
6217fd4ec93866a5

$$$$
