
     RDKit          3D

 61 64  0  0  0  0  0  0  0  0999 V2000
   52.1870   75.3670   26.6040 C   0  0  0  0  0  0  0  0  0  0  0  0
   52.2000   76.1590   27.9020 C   0  0  0  0  0  0  0  0  0  0  0  0
   53.5710   76.5670   28.3080 C   0  0  0  0  0  0  0  0  0  0  0  0
   54.4620   75.8810   29.1540 C   0  0  0  0  0  0  0  0  0  0  0  0
   55.6160   76.5210   29.3320 N   0  0  0  0  0  0  0  0  0  0  0  0
   55.5040   77.6570   28.5710 N   0  0  0  0  0  0  0  0  0  0  0  0
   56.4350   78.7110   28.4020 C   0  0  0  0  0  0  0  0  0  0  0  0
   57.6760   78.6720   29.0650 N   0  0  0  0  0  0  0  0  0  0  0  0
   58.8280   79.1010   28.3820 N   0  0  0  0  0  0  0  0  0  0  0  0
   58.9400   80.5260   28.3960 N   0  0  0  0  0  0  0  0  0  0  0  0
   59.8460   80.9820   29.4550 C   0  0  0  0  0  0  0  0  0  0  0  0
   59.1220   81.4990   30.6780 C   0  0  0  0  0  0  0  0  0  0  0  0
   58.7410   80.6350   31.7100 C   0  0  0  0  0  0  0  0  0  0  0  0
   58.0840   81.1300   32.8320 C   0  0  0  0  0  0  0  0  0  0  0  0
   57.8110   82.4930   32.9180 C   0  0  0  0  0  0  0  0  0  0  0  0
   58.1800   83.3700   31.9120 N   0  0  0  0  0  0  0  0  0  0  0  0
   57.9260   84.6100   32.0130 O   0  0  0  0  0  0  0  0  0  0  0  0
   58.8330   82.8640   30.8040 C   0  0  0  0  0  0  0  0  0  0  0  0
   56.0570   79.7660   27.6520 C   0  0  0  0  0  0  0  0  0  0  0  0
   54.7110   79.7530   26.9750 C   0  0  0  0  0  0  0  0  0  0  0  0
   54.2970   80.7990   26.1440 N   0  0  0  0  0  0  0  0  0  0  0  0
   55.0290   82.0400   25.9220 C   0  0  0  0  0  0  0  0  0  0  0  0
   54.3230   83.1770   26.6550 C   0  0  0  0  0  0  0  0  0  0  0  0
   52.8010   83.1270   26.4830 C   0  0  0  0  0  0  0  0  0  0  0  0
   52.3890   82.2000   25.3410 C   0  0  0  0  0  0  0  0  0  0  0  0
   52.9300   80.7700   25.5580 C   0  0  1  0  0  0  0  0  0  0  0  0
   52.9490   79.9600   24.2500 C   0  0  0  0  0  0  0  0  0  0  0  0
   52.3570   80.7130   23.0660 C   0  0  0  0  0  0  0  0  0  0  0  0
   51.0600   80.2320   22.7440 O   0  0  0  0  0  0  0  0  0  0  0  0
   53.8780   78.7490   27.1510 N   0  0  0  0  0  0  0  0  0  0  0  0
   54.2540   77.7110   27.9490 C   0  0  0  0  0  0  0  0  0  0  0  0
   52.1693   74.2909   26.8313 H   0  0  0  0  0  0  0  0  0  0  0  0
   51.2931   75.6333   26.0209 H   0  0  0  0  0  0  0  0  0  0  0  0
   53.0892   75.6039   26.0209 H   0  0  0  0  0  0  0  0  0  0  0  0
   51.5879   77.0633   27.7693 H   0  0  0  0  0  0  0  0  0  0  0  0
   51.7972   75.5095   28.6931 H   0  0  0  0  0  0  0  0  0  0  0  0
   54.2286   74.9130   29.6214 H   0  0  0  0  0  0  0  0  0  0  0  0
   57.6150   79.1440   29.9690 H   0  0  0  0  0  0  0  0  0  0  0  0
   59.6810   78.6720   28.7650 H   0  0  0  0  0  0  0  0  0  0  0  0
   59.3170   80.8420   27.4880 H   0  0  0  0  0  0  0  0  0  0  0  0
   60.4834   80.1379   29.7570 H   0  0  0  0  0  0  0  0  0  0  0  0
   60.4327   81.8175   29.0454 H   0  0  0  0  0  0  0  0  0  0  0  0
   58.9617   79.5600   31.6341 H   0  0  0  0  0  0  0  0  0  0  0  0
   57.7830   80.4512   33.6436 H   0  0  0  0  0  0  0  0  0  0  0  0
   57.2903   82.8818   33.8055 H   0  0  0  0  0  0  0  0  0  0  0  0
   59.1338   83.5514   29.9996 H   0  0  0  0  0  0  0  0  0  0  0  0
   56.7270   80.6305   27.5352 H   0  0  0  0  0  0  0  0  0  0  0  0
   56.0547   81.9358   26.3056 H   0  0  0  0  0  0  0  0  0  0  0  0
   55.0645   82.2605   24.8449 H   0  0  0  0  0  0  0  0  0  0  0  0
   54.5598   83.1071   27.7269 H   0  0  0  0  0  0  0  0  0  0  0  0
   54.6781   84.1250   26.2247 H   0  0  0  0  0  0  0  0  0  0  0  0
   52.3489   82.7633   27.4175 H   0  0  0  0  0  0  0  0  0  0  0  0
   52.4507   84.1417   26.2429 H   0  0  0  0  0  0  0  0  0  0  0  0
   51.2909   82.1636   25.2871 H   0  0  0  0  0  0  0  0  0  0  0  0
   52.8111   82.5931   24.4044 H   0  0  0  0  0  0  0  0  0  0  0  0
   52.2446   80.2755   26.2620 H   0  0  0  0  0  0  0  0  0  0  0  0
   53.9921   79.7028   24.0138 H   0  0  0  0  0  0  0  0  0  0  0  0
   52.3279   79.0666   24.4112 H   0  0  0  0  0  0  0  0  0  0  0  0
   52.2903   81.7816   23.3182 H   0  0  0  0  0  0  0  0  0  0  0  0
   53.0105   80.5584   22.1948 H   0  0  0  0  0  0  0  0  0  0  0  0
   50.7770   79.6380   23.4640 H   0  0  0  0  0  0  0  0  0  0  0  0
  1  2  1  0
  2  3  1  0
  3  4  1  0
  4  5  2  0
  5  6  1  0
  6  7  1  0
  7  8  1  0
  8  9  1  0
  9 10  1  0
 10 11  1  0
 11 12  1  0
 12 13  1  0
 13 14  2  0
 14 15  1  0
 15 16  2  0
 16 17  1  0
 16 18  1  0
  7 19  2  0
 19 20  1  0
 20 21  1  0
 21 22  1  0
 22 23  1  0
 23 24  1  0
 24 25  1  0
 25 26  1  0
 26 27  1  0
 27 28  1  0
 28 29  1  0
 20 30  2  0
 30 31  1  0
 31  3  2  0
 31  6  1  0
 18 12  2  0
 26 21  1  0
  1 32  1  0
  1 33  1  0
  1 34  1  0
  2 35  1  0
  2 36  1  0
  4 37  1  0
  8 38  1  0
  9 39  1  0
 10 40  1  0
 11 41  1  0
 11 42  1  0
 13 43  1  0
 14 44  1  0
 15 45  1  0
 18 46  1  0
 19 47  1  0
 22 48  1  0
 22 49  1  0
 23 50  1  0
 23 51  1  0
 24 52  1  0
 24 53  1  0
 25 54  1  0
 25 55  1  0
 26 56  1  1
 27 57  1  0
 27 58  1  0
 28 59  1  0
 28 60  1  0
 29 61  1  0
M  CHG  2  16   1  17  -1
M  END
>  <meeko>  (1) 
{"is_sidechain": false}

>  <smiles>  (1) 
CCc1cnn2c(NNNCc3ccc[n+]([O-])c3)cc(N3CCCC[C@H]3CCO)nc12

>  <vina_score>  (1) 
-9.426

>  <job_id>  (1) 
622e9e59781e93e1

$$$$
