
     RDKit          3D

 51 52  0  0  0  0  0  0  0  0999 V2000
   55.5600   83.3810   26.4810 C   0  0  0  0  0  0  0  0  0  0  0  0
   55.2900   82.1770   25.7700 O   0  0  0  0  0  0  0  0  0  0  0  0
   54.9160   81.0940   26.5170 C   0  0  0  0  0  0  0  0  0  0  0  0
   55.2410   79.8020   26.3530 C   0  0  0  0  0  0  0  0  0  0  0  0
   54.7380   78.7440   27.2280 C   0  0  0  0  0  0  0  0  0  0  0  0
   53.6380   77.8500   26.7670 C   0  0  0  0  0  0  0  0  0  0  0  0
   52.9340   78.2510   25.4940 C   0  0  0  0  0  0  0  0  0  0  0  0
   53.3120   76.7680   27.4990 C   0  0  0  0  0  0  0  0  0  0  0  0
   52.3500   75.8450   27.2100 O   0  0  0  0  0  0  0  0  0  0  0  0
   53.9680   76.4830   28.6490 N   0  0  0  0  0  0  0  0  0  0  0  0
   54.9710   77.2400   29.1700 C   0  0  0  0  0  0  0  0  0  0  0  0
   55.5600   76.9370   30.2060 O   0  0  0  0  0  0  0  0  0  0  0  0
   55.3520   78.4900   28.4130 C   0  0  0  0  0  0  0  0  0  0  0  0
   56.3720   79.1970   29.0410 N   0  0  0  0  0  0  0  0  0  0  0  0
   57.7300   79.1600   28.8020 C   0  0  0  0  0  0  0  0  0  0  0  0
   58.2890   78.5660   27.8870 O   0  0  0  0  0  0  0  0  0  0  0  0
   58.5510   80.0170   29.7090 C   0  0  0  0  0  0  0  0  0  0  0  0
   59.3830   80.9870   29.1460 C   0  0  0  0  0  0  0  0  0  0  0  0
   60.1700   81.8120   29.9610 C   0  0  0  0  0  0  0  0  0  0  0  0
   60.1470   81.6890   31.3620 C   0  0  0  0  0  0  0  0  0  0  0  0
   60.9970   82.5850   32.2910 C   0  0  0  0  0  0  0  0  0  0  0  0
   60.1610   83.6010   33.0960 C   0  0  0  0  0  0  0  0  0  0  0  0
   61.7650   81.7020   33.2980 C   0  0  0  0  0  0  0  0  0  0  0  0
   62.1800   83.5490   31.2040 S   0  0  0  0  0  0  0  0  0  0  0  0
   63.6410   82.4820   31.1830 C   0  0  0  0  0  0  0  0  0  0  0  0
   59.3200   80.6840   31.9070 C   0  0  0  0  0  0  0  0  0  0  0  0
   58.5340   79.8570   31.0960 C   0  0  0  0  0  0  0  0  0  0  0  0
   55.5162   83.1858   27.5626 H   0  0  0  0  0  0  0  0  0  0  0  0
   56.5625   83.7471   26.2148 H   0  0  0  0  0  0  0  0  0  0  0  0
   54.8098   84.1401   26.2148 H   0  0  0  0  0  0  0  0  0  0  0  0
   54.2575   81.3121   27.3707 H   0  0  0  0  0  0  0  0  0  0  0  0
   55.9132   79.5280   25.5266 H   0  0  0  0  0  0  0  0  0  0  0  0
   52.0027   78.7815   25.7415 H   0  0  0  0  0  0  0  0  0  0  0  0
   53.5876   78.9123   24.9062 H   0  0  0  0  0  0  0  0  0  0  0  0
   52.6985   77.3515   24.9062 H   0  0  0  0  0  0  0  0  0  0  0  0
   51.4810   76.1920   27.4630 H   0  0  0  0  0  0  0  0  0  0  0  0
   53.6990   75.6520   29.1590 H   0  0  0  0  0  0  0  0  0  0  0  0
   56.0300   80.0390   29.5030 H   0  0  0  0  0  0  0  0  0  0  0  0
   59.4210   81.1046   28.0530 H   0  0  0  0  0  0  0  0  0  0  0  0
   60.8178   82.5699   29.4963 H   0  0  0  0  0  0  0  0  0  0  0  0
   60.3062   83.4246   34.1720 H   0  0  0  0  0  0  0  0  0  0  0  0
   60.4839   84.6222   32.8450 H   0  0  0  0  0  0  0  0  0  0  0  0
   59.0968   83.4808   32.8450 H   0  0  0  0  0  0  0  0  0  0  0  0
   61.5035   82.0027   34.3233 H   0  0  0  0  0  0  0  0  0  0  0  0
   61.4917   80.6477   33.1441 H   0  0  0  0  0  0  0  0  0  0  0  0
   62.8470   81.8265   33.1441 H   0  0  0  0  0  0  0  0  0  0  0  0
   63.9468   82.2587   32.2158 H   0  0  0  0  0  0  0  0  0  0  0  0
   63.4025   81.5440   30.6602 H   0  0  0  0  0  0  0  0  0  0  0  0
   64.4619   82.9946   30.6602 H   0  0  0  0  0  0  0  0  0  0  0  0
   59.2922   80.5468   32.9981 H   0  0  0  0  0  0  0  0  0  0  0  0
   57.9023   79.0803   31.5518 H   0  0  0  0  0  0  0  0  0  0  0  0
  1  2  1  0
  2  3  1  0
  3  4  2  3
  4  5  1  0
  5  6  1  0
  6  7  1  0
  6  8  2  0
  8  9  1  0
  8 10  1  0
 10 11  1  0
 11 12  2  0
 11 13  1  0
 13 14  1  0
 14 15  1  0
 15 16  2  0
 15 17  1  0
 17 18  1  0
 18 19  2  0
 19 20  1  0
 20 21  1  0
 21 22  1  0
 21 23  1  0
 21 24  1  0
 24 25  1  0
 20 26  2  0
 26 27  1  0
 13  5  2  0
 27 17  2  0
  1 28  1  0
  1 29  1  0
  1 30  1  0
  3 31  1  0
  4 32  1  0
  7 33  1  0
  7 34  1  0
  7 35  1  0
  9 36  1  0
 10 37  1  0
 14 38  1  0
 18 39  1  0
 19 40  1  0
 22 41  1  0
 22 42  1  0
 22 43  1  0
 23 44  1  0
 23 45  1  0
 23 46  1  0
 25 47  1  0
 25 48  1  0
 25 49  1  0
 26 50  1  0
 27 51  1  0
M  END
>  <meeko>  (1) 
{"is_sidechain": false}

>  <smiles>  (1) 
COC=Cc1c(C)c(O)[nH]c(=O)c1NC(=O)c1ccc(C(C)(C)SC)cc1

>  <vina_score>  (1) 
-7.767

>  <job_id>  (1) 
6246b2a07ca6c7cf

$$$$
