
     RDKit          3D

 60 64  0  0  0  0  0  0  0  0999 V2000
   60.5730   85.8710   37.0440 C   0  0  0  0  0  0  0  0  0  0  0  0
   60.4350   84.7320   36.1830 N   0  0  0  0  0  0  0  0  0  0  0  0
   61.5200   83.9930   35.7580 C   0  0  0  0  0  0  0  0  0  0  0  0
   62.6550   84.1610   36.1910 O   0  0  0  0  0  0  0  0  0  0  0  0
   61.1710   83.0210   34.7010 C   0  0  0  0  0  0  0  0  0  0  0  0
   61.2120   81.6990   34.9830 N   0  0  0  0  0  0  0  0  0  0  0  0
   60.7200   81.0950   33.8840 N   0  0  0  0  0  0  0  0  0  0  0  0
   60.5780   79.6580   33.8930 C   0  0  0  0  0  0  0  0  0  0  0  0
   60.4220   81.9660   32.8790 C   0  0  0  0  0  0  0  0  0  0  0  0
   60.7430   83.2330   33.3540 C   0  0  0  0  0  0  0  0  0  0  0  0
   60.5220   84.4800   32.5110 C   0  0  0  0  0  0  0  0  0  0  0  0
   61.6930   85.4770   32.5990 C   0  0  0  0  0  0  0  0  0  0  0  0
   59.2170   85.1780   32.9430 C   0  0  0  0  0  0  0  0  0  0  0  0
   60.4030   84.0850   30.9870 C   0  0  0  0  0  0  0  0  0  0  0  0
   59.7440   82.7650   30.6990 C   0  0  0  0  0  0  0  0  0  0  0  0
   59.1050   82.4820   29.5200 C   0  0  0  0  0  0  0  0  0  0  0  0
   58.5710   81.2780   29.2410 N   0  0  0  0  0  0  0  0  0  0  0  0
   58.7170   80.3030   30.1560 C   0  0  0  0  0  0  0  0  0  0  0  0
   58.1090   79.1000   29.8080 N   0  0  0  0  0  0  0  0  0  0  0  0
   56.8860   78.7660   29.2200 C   0  0  0  0  0  0  0  0  0  0  0  0
   55.9800   77.8660   29.7870 C   0  0  0  0  0  0  0  0  0  0  0  0
   54.7450   77.6060   29.1880 C   0  0  0  0  0  0  0  0  0  0  0  0
   54.3920   78.2530   28.0060 C   0  0  0  0  0  0  0  0  0  0  0  0
   55.2780   79.1550   27.4160 C   0  0  0  0  0  0  0  0  0  0  0  0
   54.8080   79.9840   25.9090 S   0  0  0  0  0  0  0  0  0  0  0  0
   53.1710   80.6240   26.3800 C   0  0  0  0  0  0  0  0  0  0  0  0
   53.3100   81.9100   27.1350 C   0  0  0  0  0  0  0  0  0  0  0  0
   54.3770   82.8980   26.7330 C   0  0  0  0  0  0  0  0  0  0  0  0
   52.9290   83.2320   26.5140 C   0  0  0  0  0  0  0  0  0  0  0  0
   56.5080   79.4160   28.0340 C   0  0  0  0  0  0  0  0  0  0  0  0
   59.3440   80.4730   31.3320 N   0  0  0  0  0  0  0  0  0  0  0  0
   59.8290   81.7020   31.5780 C   0  0  0  0  0  0  0  0  0  0  0  0
   60.5334   85.5442   38.0936 H   0  0  0  0  0  0  0  0  0  0  0  0
   61.5373   86.3631   36.8493 H   0  0  0  0  0  0  0  0  0  0  0  0
   59.7541   86.5792   36.8493 H   0  0  0  0  0  0  0  0  0  0  0  0
   59.6010   84.6070   35.6130 H   0  0  0  0  0  0  0  0  0  0  0  0
   60.5426   79.2996   34.9324 H   0  0  0  0  0  0  0  0  0  0  0  0
   59.6478   79.3782   33.3768 H   0  0  0  0  0  0  0  0  0  0  0  0
   61.4354   79.2016   33.3768 H   0  0  0  0  0  0  0  0  0  0  0  0
   61.9266   85.6759   33.6553 H   0  0  0  0  0  0  0  0  0  0  0  0
   62.5765   85.0497   32.1022 H   0  0  0  0  0  0  0  0  0  0  0  0
   61.4120   86.4174   32.1022 H   0  0  0  0  0  0  0  0  0  0  0  0
   59.1629   85.2069   34.0413 H   0  0  0  0  0  0  0  0  0  0  0  0
   59.2021   86.2045   32.5480 H   0  0  0  0  0  0  0  0  0  0  0  0
   58.3549   84.6206   32.5480 H   0  0  0  0  0  0  0  0  0  0  0  0
   59.8216   84.8693   30.4802 H   0  0  0  0  0  0  0  0  0  0  0  0
   61.4367   83.9864   30.6241 H   0  0  0  0  0  0  0  0  0  0  0  0
   59.0245   83.2776   28.7647 H   0  0  0  0  0  0  0  0  0  0  0  0
   58.6450   78.3390   30.2020 H   0  0  0  0  0  0  0  0  0  0  0  0
   56.2443   77.3523   30.7231 H   0  0  0  0  0  0  0  0  0  0  0  0
   54.0503   76.8893   29.6504 H   0  0  0  0  0  0  0  0  0  0  0  0
   53.4165   78.0532   27.5386 H   0  0  0  0  0  0  0  0  0  0  0  0
   52.5756   80.7995   25.4719 H   0  0  0  0  0  0  0  0  0  0  0  0
   52.6709   79.8851   27.0233 H   0  0  0  0  0  0  0  0  0  0  0  0
   53.0270   81.3846   28.0591 H   0  0  0  0  0  0  0  0  0  0  0  0
   54.9528   83.4294   27.5050 H   0  0  0  0  0  0  0  0  0  0  0  0
   55.2705   82.8586   26.0927 H   0  0  0  0  0  0  0  0  0  0  0  0
   52.4452   84.0076   27.1259 H   0  0  0  0  0  0  0  0  0  0  0  0
   52.3246   83.5380   25.6474 H   0  0  0  0  0  0  0  0  0  0  0  0
   57.1933   80.1468   27.5798 H   0  0  0  0  0  0  0  0  0  0  0  0
  1  2  1  0
  2  3  1  0
  3  4  2  0
  3  5  1  0
  5  6  2  0
  6  7  1  0
  7  8  1  0
  7  9  1  0
  9 10  2  0
 10 11  1  0
 11 12  1  0
 11 13  1  0
 11 14  1  0
 14 15  1  0
 15 16  2  0
 16 17  1  0
 17 18  2  0
 18 19  1  0
 19 20  1  0
 20 21  2  0
 21 22  1  0
 22 23  2  0
 23 24  1  0
 24 25  1  0
 25 26  1  0
 26 27  1  0
 27 28  1  0
 28 29  1  0
 24 30  2  0
 18 31  1  0
 31 32  2  0
 10  5  1  0
 32 15  1  0
 32  9  1  0
 30 20  1  0
 29 27  1  0
  1 33  1  0
  1 34  1  0
  1 35  1  0
  2 36  1  0
  8 37  1  0
  8 38  1  0
  8 39  1  0
 12 40  1  0
 12 41  1  0
 12 42  1  0
 13 43  1  0
 13 44  1  0
 13 45  1  0
 14 46  1  0
 14 47  1  0
 16 48  1  0
 19 49  1  0
 21 50  1  0
 22 51  1  0
 23 52  1  0
 26 53  1  0
 26 54  1  0
 27 55  1  0
 28 56  1  0
 28 57  1  0
 29 58  1  0
 29 59  1  0
 30 60  1  0
M  END
>  <meeko>  (1) 
{"is_sidechain": false}

>  <smiles>  (1) 
CNC(=O)c1nn(C)c2c1C(C)(C)Cc1cnc(Nc3cccc(SCC4CC4)c3)nc1-2

>  <vina_score>  (1) 
-7.919

>  <job_id>  (1) 
62489325b8dd2323

$$$$
