
     RDKit          3D

 48 51  0  0  0  0  0  0  0  0999 V2000
   53.3570   83.9070   25.5560 N   0  0  0  0  0  0  0  0  0  0  0  0
   54.1960   84.8710   25.9960 C   0  0  0  0  0  0  0  0  0  0  0  0
   54.0580   86.0610   25.7710 O   0  0  0  0  0  0  0  0  0  0  0  0
   55.5000   84.1700   26.8960 S   0  0  0  0  0  0  0  0  0  0  0  0
   55.9100   82.7430   25.8430 C   0  0  0  0  0  0  0  0  0  0  0  0
   55.9340   81.4110   26.5870 C   0  0  0  0  0  0  0  0  0  0  0  0
   54.8790   80.5310   26.1050 N   0  0  0  0  0  0  0  0  0  0  0  0
   54.2170   80.8750   24.9800 N   0  0  0  0  0  0  0  0  0  0  0  0
   53.3900   79.8460   24.7210 C   0  0  0  0  0  0  0  0  0  0  0  0
   52.5220   79.8470   23.5320 C   0  0  0  0  0  0  0  0  0  0  0  0
   52.0420   81.0770   23.1520 N   0  0  0  0  0  0  0  0  0  0  0  0
   52.1850   78.8480   22.9040 O   0  0  0  0  0  0  0  0  0  0  0  0
   53.5330   78.8440   25.7200 C   0  0  0  0  0  0  0  0  0  0  0  0
   54.4750   79.3280   26.6100 C   0  0  0  0  0  0  0  0  0  0  0  0
   54.9090   78.5990   27.7890 C   0  0  0  0  0  0  0  0  0  0  0  0
   55.9600   79.0680   28.4740 N   0  0  0  0  0  0  0  0  0  0  0  0
   56.3670   78.3370   29.5230 C   0  0  0  0  0  0  0  0  0  0  0  0
   57.4600   78.7320   30.2910 N   0  0  0  0  0  0  0  0  0  0  0  0
   58.2190   79.9140   30.2510 C   0  0  0  0  0  0  0  0  0  0  0  0
   58.3000   80.6970   31.4130 C   0  0  0  0  0  0  0  0  0  0  0  0
   59.0540   81.8760   31.4400 C   0  0  0  0  0  0  0  0  0  0  0  0
   59.7420   82.2870   30.3030 C   0  0  0  0  0  0  0  0  0  0  0  0
   59.6850   81.5160   29.1460 C   0  0  0  0  0  0  0  0  0  0  0  0
   58.9350   80.3360   29.1260 C   0  0  0  0  0  0  0  0  0  0  0  0
   55.7950   77.1740   29.8880 N   0  0  0  0  0  0  0  0  0  0  0  0
   54.7200   76.7620   29.1900 C   0  0  0  0  0  0  0  0  0  0  0  0
   54.2210   77.4380   28.1080 C   0  0  0  0  0  0  0  0  0  0  0  0
   52.9680   77.0310   27.3750 C   0  0  0  0  0  0  0  0  0  0  0  0
   52.9010   77.5050   25.9020 C   0  0  0  0  0  0  0  0  0  0  0  0
   53.6480   82.9420   25.6280 H   0  0  0  0  0  0  0  0  0  0  0  0
   52.6270   84.1660   24.9100 H   0  0  0  0  0  0  0  0  0  0  0  0
   55.1602   82.6780   25.0408 H   0  0  0  0  0  0  0  0  0  0  0  0
   56.9268   82.9120   25.4587 H   0  0  0  0  0  0  0  0  0  0  0  0
   56.9086   80.9265   26.4279 H   0  0  0  0  0  0  0  0  0  0  0  0
   55.7720   81.6022   27.6581 H   0  0  0  0  0  0  0  0  0  0  0  0
   51.9730   81.8060   23.8460 H   0  0  0  0  0  0  0  0  0  0  0  0
   51.3000   81.0270   22.4650 H   0  0  0  0  0  0  0  0  0  0  0  0
   57.3440   78.3550   31.2220 H   0  0  0  0  0  0  0  0  0  0  0  0
   57.7617   80.3787   32.3180 H   0  0  0  0  0  0  0  0  0  0  0  0
   59.1025   82.4772   32.3599 H   0  0  0  0  0  0  0  0  0  0  0  0
   60.3286   83.2174   30.3184 H   0  0  0  0  0  0  0  0  0  0  0  0
   60.2307   81.8352   28.2458 H   0  0  0  0  0  0  0  0  0  0  0  0
   58.9076   79.7288   28.2092 H   0  0  0  0  0  0  0  0  0  0  0  0
   54.2169   75.8357   29.5044 H   0  0  0  0  0  0  0  0  0  0  0  0
   52.9056   75.9328   27.3854 H   0  0  0  0  0  0  0  0  0  0  0  0
   52.1297   77.5153   27.8972 H   0  0  0  0  0  0  0  0  0  0  0  0
   53.4263   76.7747   25.2690 H   0  0  0  0  0  0  0  0  0  0  0  0
   51.8415   77.5862   25.6175 H   0  0  0  0  0  0  0  0  0  0  0  0
  1  2  1  0
  2  3  2  0
  2  4  1  0
  4  5  1  0
  5  6  1  0
  6  7  1  0
  7  8  1  0
  8  9  2  0
  9 10  1  0
 10 11  1  0
 10 12  2  0
  9 13  1  0
 13 14  2  0
 14 15  1  0
 15 16  2  0
 16 17  1  0
 17 18  1  0
 18 19  1  0
 19 20  2  0
 20 21  1  0
 21 22  2  0
 22 23  1  0
 23 24  2  0
 17 25  2  0
 25 26  1  0
 26 27  2  0
 27 28  1  0
 28 29  1  0
 14  7  1  0
 27 15  1  0
 29 13  1  0
 24 19  1  0
  1 30  1  0
  1 31  1  0
  5 32  1  0
  5 33  1  0
  6 34  1  0
  6 35  1  0
 11 36  1  0
 11 37  1  0
 18 38  1  0
 20 39  1  0
 21 40  1  0
 22 41  1  0
 23 42  1  0
 24 43  1  0
 26 44  1  0
 28 45  1  0
 28 46  1  0
 29 47  1  0
 29 48  1  0
M  END
>  <meeko>  (1) 
{"is_sidechain": false}

>  <smiles>  (1) 
NC(=O)SCCn1nc(C(N)=O)c2c1-c1nc(Nc3ccccc3)ncc1CC2

>  <vina_score>  (1) 
-8.676

>  <job_id>  (1) 
626033c7c90b9ddc

$$$$
