
     RDKit          3D

 44 46  0  0  0  0  0  0  0  0999 V2000
   52.9540   79.1530   26.1990 C   0  0  0  0  0  0  0  0  0  0  0  0
   54.1900   79.0600   27.0420 C   0  0  0  0  0  0  0  0  0  0  0  0
   54.3090   78.0630   28.0040 C   0  0  0  0  0  0  0  0  0  0  0  0
   55.4710   77.9880   28.7900 C   0  0  0  0  0  0  0  0  0  0  0  0
   55.5610   76.9160   29.8410 C   0  0  0  0  0  0  0  0  0  0  0  0
   56.5160   78.9070   28.5670 C   0  0  0  0  0  0  0  0  0  0  0  0
   57.6680   78.9010   29.3870 N   0  0  0  0  0  0  0  0  0  0  0  0
   58.5390   79.9750   29.6980 C   0  0  0  0  0  0  0  0  0  0  0  0
   58.6130   80.3780   31.0370 C   0  0  0  0  0  0  0  0  0  0  0  0
   59.4340   81.4420   31.4300 C   0  0  0  0  0  0  0  0  0  0  0  0
   59.5520   81.8730   32.7570 N   0  0  0  0  0  0  0  0  0  0  0  0
   59.2210   80.9340   33.8390 C   0  0  0  0  0  0  0  0  0  0  0  0
   60.2610   80.9390   34.9590 C   0  0  0  0  0  0  0  0  0  0  0  0
   61.3850   81.9630   34.7840 C   0  0  0  0  0  0  0  0  0  0  0  0
   60.9350   83.2930   34.9950 O   0  0  0  0  0  0  0  0  0  0  0  0
   60.4860   83.9690   33.8130 C   0  0  0  0  0  0  0  0  0  0  0  0
   59.3320   83.3120   33.0090 C   0  0  0  0  0  0  0  0  0  0  0  0
   60.1800   82.0520   30.4210 C   0  0  0  0  0  0  0  0  0  0  0  0
   60.0570   81.6060   29.1160 C   0  0  0  0  0  0  0  0  0  0  0  0
   59.2500   80.5950   28.7410 N   0  0  0  0  0  0  0  0  0  0  0  0
   56.2710   79.8860   27.6000 C   0  0  0  0  0  0  0  0  0  0  0  0
   55.1510   79.9800   26.8360 N   0  0  0  0  0  0  0  0  0  0  0  0
   52.0701   79.2195   26.8503 H   0  0  0  0  0  0  0  0  0  0  0  0
   53.0098   80.0495   25.5640 H   0  0  0  0  0  0  0  0  0  0  0  0
   52.8751   78.2583   25.5640 H   0  0  0  0  0  0  0  0  0  0  0  0
   53.4964   77.3359   28.1490 H   0  0  0  0  0  0  0  0  0  0  0  0
   55.5223   77.3769   30.8391 H   0  0  0  0  0  0  0  0  0  0  0  0
   54.7183   76.2184   29.7263 H   0  0  0  0  0  0  0  0  0  0  0  0
   56.5083   76.3687   29.7263 H   0  0  0  0  0  0  0  0  0  0  0  0
   58.2190   78.0610   29.2640 H   0  0  0  0  0  0  0  0  0  0  0  0
   58.0153   79.8491   31.7939 H   0  0  0  0  0  0  0  0  0  0  0  0
   58.2453   81.2142   34.2627 H   0  0  0  0  0  0  0  0  0  0  0  0
   59.2000   79.9222   33.4078 H   0  0  0  0  0  0  0  0  0  0  0  0
   59.7441   81.1561   35.9054 H   0  0  0  0  0  0  0  0  0  0  0  0
   60.7385   79.9482   34.9438 H   0  0  0  0  0  0  0  0  0  0  0  0
   62.1834   81.7400   35.5071 H   0  0  0  0  0  0  0  0  0  0  0  0
   61.7510   81.8899   33.7492 H   0  0  0  0  0  0  0  0  0  0  0  0
   60.1490   84.9718   34.1143 H   0  0  0  0  0  0  0  0  0  0  0  0
   61.3499   83.9492   33.1323 H   0  0  0  0  0  0  0  0  0  0  0  0
   58.3974   83.4298   33.5770 H   0  0  0  0  0  0  0  0  0  0  0  0
   59.2837   83.8142   32.0315 H   0  0  0  0  0  0  0  0  0  0  0  0
   60.8613   82.8817   30.6607 H   0  0  0  0  0  0  0  0  0  0  0  0
   60.6537   82.1070   28.3395 H   0  0  0  0  0  0  0  0  0  0  0  0
   57.0514   80.6453   27.4440 H   0  0  0  0  0  0  0  0  0  0  0  0
  1  2  1  0
  2  3  2  0
  3  4  1  0
  4  5  1  0
  4  6  2  0
  6  7  1  0
  7  8  1  0
  8  9  2  0
  9 10  1  0
 10 11  1  0
 11 12  1  0
 12 13  1  0
 13 14  1  0
 14 15  1  0
 15 16  1  0
 16 17  1  0
 10 18  2  0
 18 19  1  0
 19 20  2  0
  6 21  1  0
 21 22  2  0
 22  2  1  0
 20  8  1  0
 17 11  1  0
  1 23  1  0
  1 24  1  0
  1 25  1  0
  3 26  1  0
  5 27  1  0
  5 28  1  0
  5 29  1  0
  7 30  1  0
  9 31  1  0
 12 32  1  0
 12 33  1  0
 13 34  1  0
 13 35  1  0
 14 36  1  0
 14 37  1  0
 16 38  1  0
 16 39  1  0
 17 40  1  0
 17 41  1  0
 18 42  1  0
 19 43  1  0
 21 44  1  0
M  END
>  <meeko>  (1) 
{"is_sidechain": false}

>  <smiles>  (1) 
Cc1cc(C)c(Nc2cc(N3CCCOCC3)ccn2)cn1

>  <vina_score>  (1) 
-6.076

>  <job_id>  (1) 
62ab2141699e4674

$$$$
