
     RDKit          3D

 44 45  0  0  0  0  0  0  0  0999 V2000
   58.5420   80.5630   31.5130 C   0  0  0  0  0  0  0  0  0  0  0  0
   59.0240   81.1500   30.1760 C   0  0  0  0  0  0  0  0  0  0  0  0
   60.5470   81.3650   30.2590 C   0  0  0  0  0  0  0  0  0  0  0  0
   58.3550   82.5120   29.9290 C   0  0  0  0  0  0  0  0  0  0  0  0
   58.8050   80.2110   29.0620 N   0  0  0  0  0  0  0  0  0  0  0  0
   57.6420   79.3360   29.1740 C   0  0  0  0  0  0  0  0  0  0  0  0
   56.6400   79.6500   28.0850 C   0  0  0  0  0  0  0  0  0  0  0  0
   55.4960   78.8640   27.9120 C   0  0  0  0  0  0  0  0  0  0  0  0
   54.5790   79.1560   26.8980 C   0  0  0  0  0  0  0  0  0  0  0  0
   54.7820   80.2370   26.0240 C   0  0  0  0  0  0  0  0  0  0  0  0
   53.8180   80.5420   24.9540 C   0  0  0  0  0  0  0  0  0  0  0  0
   53.2650   79.5170   24.1650 C   0  0  0  0  0  0  0  0  0  0  0  0
   52.3500   79.8000   23.1460 C   0  0  0  0  0  0  0  0  0  0  0  0
   51.9730   81.1230   22.9140 C   0  0  0  0  0  0  0  0  0  0  0  0
   50.8170   81.4990   21.6230 S   0  0  0  0  0  0  0  0  0  0  0  0
   49.3690   80.9820   22.3110 N   0  0  0  0  0  0  0  0  0  0  0  0
   50.7510   82.9320   21.4700 O   0  0  0  0  0  0  0  0  0  0  0  0
   51.0600   80.6060   20.5140 O   0  0  0  0  0  0  0  0  0  0  0  0
   52.5150   82.1620   23.6720 C   0  0  0  0  0  0  0  0  0  0  0  0
   53.4280   81.8670   24.6880 C   0  0  0  0  0  0  0  0  0  0  0  0
   55.9380   81.0150   26.2000 C   0  0  0  0  0  0  0  0  0  0  0  0
   56.8550   80.7260   27.2150 C   0  0  0  0  0  0  0  0  0  0  0  0
   58.9993   81.1199   32.3441 H   0  0  0  0  0  0  0  0  0  0  0  0
   57.4468   80.6445   31.5757 H   0  0  0  0  0  0  0  0  0  0  0  0
   58.8351   79.5046   31.5757 H   0  0  0  0  0  0  0  0  0  0  0  0
   60.8542   81.4084   31.3143 H   0  0  0  0  0  0  0  0  0  0  0  0
   61.0628   80.5308   29.7610 H   0  0  0  0  0  0  0  0  0  0  0  0
   60.8117   82.3094   29.7610 H   0  0  0  0  0  0  0  0  0  0  0  0
   58.1220   82.9864   30.8937 H   0  0  0  0  0  0  0  0  0  0  0  0
   59.0383   83.1580   29.3583 H   0  0  0  0  0  0  0  0  0  0  0  0
   57.4260   82.3661   29.3583 H   0  0  0  0  0  0  0  0  0  0  0  0
   59.6350   79.6340   28.9300 H   0  0  0  0  0  0  0  0  0  0  0  0
   57.9654   78.2890   29.0782 H   0  0  0  0  0  0  0  0  0  0  0  0
   57.1673   79.4965   30.1532 H   0  0  0  0  0  0  0  0  0  0  0  0
   55.3163   78.0085   28.5797 H   0  0  0  0  0  0  0  0  0  0  0  0
   53.6830   78.5285   26.7825 H   0  0  0  0  0  0  0  0  0  0  0  0
   53.5578   78.4735   24.3531 H   0  0  0  0  0  0  0  0  0  0  0  0
   51.9317   78.9876   22.5336 H   0  0  0  0  0  0  0  0  0  0  0  0
   49.0400   80.1580   21.8040 H   0  0  0  0  0  0  0  0  0  0  0  0
   49.4390   80.8090   23.3130 H   0  0  0  0  0  0  0  0  0  0  0  0
   52.2260   83.2042   23.4714 H   0  0  0  0  0  0  0  0  0  0  0  0
   53.8491   82.6854   25.2904 H   0  0  0  0  0  0  0  0  0  0  0  0
   56.1250   81.8657   25.5282 H   0  0  0  0  0  0  0  0  0  0  0  0
   57.7537   81.3496   27.3313 H   0  0  0  0  0  0  0  0  0  0  0  0
  1  2  1  0
  2  3  1  0
  2  4  1  0
  2  5  1  0
  5  6  1  0
  6  7  1  0
  7  8  1  0
  8  9  2  0
  9 10  1  0
 10 11  1  0
 11 12  1  0
 12 13  2  0
 13 14  1  0
 14 15  1  0
 15 16  1  0
 15 17  2  0
 15 18  2  0
 14 19  2  0
 19 20  1  0
 10 21  2  0
 21 22  1  0
 22  7  2  0
 20 11  2  0
  1 23  1  0
  1 24  1  0
  1 25  1  0
  3 26  1  0
  3 27  1  0
  3 28  1  0
  4 29  1  0
  4 30  1  0
  4 31  1  0
  5 32  1  0
  6 33  1  0
  6 34  1  0
  8 35  1  0
  9 36  1  0
 12 37  1  0
 13 38  1  0
 16 39  1  0
 16 40  1  0
 19 41  1  0
 20 42  1  0
 21 43  1  0
 22 44  1  0
M  END
>  <meeko>  (1) 
{"is_sidechain": false}

>  <smiles>  (1) 
CC(C)(C)NCc1ccc(-c2ccc(S(N)(=O)=O)cc2)cc1

>  <vina_score>  (1) 
-7.670

>  <job_id>  (1) 
62c057958d619e31

$$$$
