
     RDKit          3D

 44 46  0  0  0  0  0  0  0  0999 V2000
   53.6880   81.5870   24.8000 C   0  0  0  0  0  0  0  0  0  0  0  0
   54.3020   80.8630   25.8840 N   0  0  0  0  0  0  0  0  0  0  0  0
   53.6570   79.7840   26.4560 C   0  0  0  0  0  0  0  0  0  0  0  0
   52.5250   79.4290   26.1460 O   0  0  0  0  0  0  0  0  0  0  0  0
   54.4310   79.0210   27.4720 C   0  0  0  0  0  0  0  0  0  0  0  0
   53.8520   77.9820   28.2080 C   0  0  0  0  0  0  0  0  0  0  0  0
   54.6180   77.2920   29.1460 C   0  0  0  0  0  0  0  0  0  0  0  0
   55.9590   77.6360   29.3420 C   0  0  0  0  0  0  0  0  0  0  0  0
   56.5610   78.6690   28.6070 C   0  0  0  0  0  0  0  0  0  0  0  0
   57.9250   78.9400   28.8110 N   0  0  0  0  0  0  0  0  0  0  0  0
   58.5880   79.8700   29.6300 C   0  0  0  0  0  0  0  0  0  0  0  0
   59.4480   80.8510   29.1400 C   0  0  0  0  0  0  0  0  0  0  0  0
   60.0470   81.7820   30.0000 C   0  0  0  0  0  0  0  0  0  0  0  0
   59.8000   81.7850   31.3810 C   0  0  0  0  0  0  0  0  0  0  0  0
   60.4290   82.7380   32.1980 N   0  0  0  0  0  0  0  0  0  0  0  0
   60.0420   82.6500   33.6280 C   0  0  0  0  0  0  0  0  0  0  0  0
   60.5790   83.8710   34.3950 C   0  0  0  0  0  0  0  0  0  0  0  0
   62.0010   84.0140   34.2460 O   0  0  0  0  0  0  0  0  0  0  0  0
   62.3310   84.1660   32.8550 C   0  0  0  0  0  0  0  0  0  0  0  0
   61.8840   82.9460   32.0370 C   0  0  0  0  0  0  0  0  0  0  0  0
   58.9430   80.7900   31.8660 C   0  0  0  0  0  0  0  0  0  0  0  0
   58.3420   79.8570   31.0080 C   0  0  0  0  0  0  0  0  0  0  0  0
   55.7810   79.3480   27.6650 C   0  0  0  0  0  0  0  0  0  0  0  0
   53.0271   82.3663   25.2074 H   0  0  0  0  0  0  0  0  0  0  0  0
   54.4691   82.0546   24.1825 H   0  0  0  0  0  0  0  0  0  0  0  0
   53.0991   80.8928   24.1825 H   0  0  0  0  0  0  0  0  0  0  0  0
   55.3050   80.9320   25.9870 H   0  0  0  0  0  0  0  0  0  0  0  0
   52.7981   77.7110   28.0474 H   0  0  0  0  0  0  0  0  0  0  0  0
   54.1677   76.4771   29.7319 H   0  0  0  0  0  0  0  0  0  0  0  0
   56.5536   77.0864   30.0866 H   0  0  0  0  0  0  0  0  0  0  0  0
   58.5500   78.3880   28.2360 H   0  0  0  0  0  0  0  0  0  0  0  0
   59.6601   80.8955   28.0616 H   0  0  0  0  0  0  0  0  0  0  0  0
   60.7316   82.5331   29.5792 H   0  0  0  0  0  0  0  0  0  0  0  0
   58.9452   82.6235   33.7075 H   0  0  0  0  0  0  0  0  0  0  0  0
   60.4700   81.7343   34.0620 H   0  0  0  0  0  0  0  0  0  0  0  0
   60.0881   84.7770   34.0100 H   0  0  0  0  0  0  0  0  0  0  0  0
   60.3609   83.7256   35.4633 H   0  0  0  0  0  0  0  0  0  0  0  0
   61.8285   85.0629   32.4638 H   0  0  0  0  0  0  0  0  0  0  0  0
   63.4233   84.2609   32.7666 H   0  0  0  0  0  0  0  0  0  0  0  0
   62.1129   83.1155   30.9745 H   0  0  0  0  0  0  0  0  0  0  0  0
   62.4192   82.0541   32.3949 H   0  0  0  0  0  0  0  0  0  0  0  0
   58.7360   80.7386   32.9451 H   0  0  0  0  0  0  0  0  0  0  0  0
   57.6633   79.0994   31.4268 H   0  0  0  0  0  0  0  0  0  0  0  0
   56.2340   80.1516   27.0658 H   0  0  0  0  0  0  0  0  0  0  0  0
  1  2  1  0
  2  3  1  0
  3  4  2  0
  3  5  1  0
  5  6  1  0
  6  7  2  0
  7  8  1  0
  8  9  2  0
  9 10  1  0
 10 11  1  0
 11 12  1  0
 12 13  2  0
 13 14  1  0
 14 15  1  0
 15 16  1  0
 16 17  1  0
 17 18  1  0
 18 19  1  0
 19 20  1  0
 14 21  2  0
 21 22  1  0
  9 23  1  0
 23  5  2  0
 22 11  2  0
 20 15  1  0
  1 24  1  0
  1 25  1  0
  1 26  1  0
  2 27  1  0
  6 28  1  0
  7 29  1  0
  8 30  1  0
 10 31  1  0
 12 32  1  0
 13 33  1  0
 16 34  1  0
 16 35  1  0
 17 36  1  0
 17 37  1  0
 19 38  1  0
 19 39  1  0
 20 40  1  0
 20 41  1  0
 21 42  1  0
 22 43  1  0
 23 44  1  0
M  END
>  <meeko>  (1) 
{"is_sidechain": false}

>  <smiles>  (1) 
CNC(=O)c1cccc(Nc2ccc(N3CCOCC3)cc2)c1

>  <vina_score>  (1) 
-8.333

>  <job_id>  (1) 
62d787a829338807

$$$$
