
     RDKit          3D

 42 44  0  0  0  0  0  0  0  0999 V2000
   58.2480   78.6580   28.0230 O   0  0  0  0  0  0  0  0  0  0  0  0
   57.3000   79.1070   28.6550 C   0  0  0  0  0  0  0  0  0  0  0  0
   57.3950   80.0590   29.6580 N   0  0  0  0  0  0  0  0  0  0  0  0
   58.5580   80.7020   30.1350 C   0  0  0  0  0  0  0  0  0  0  0  0
   59.4200   81.4580   29.3410 C   0  0  0  0  0  0  0  0  0  0  0  0
   60.5540   82.0640   29.8970 C   0  0  0  0  0  0  0  0  0  0  0  0
   60.8510   81.9200   31.2570 C   0  0  0  0  0  0  0  0  0  0  0  0
   62.0670   82.5960   31.8560 C   0  0  0  0  0  0  0  0  0  0  0  0
   63.2460   82.5630   30.9760 N   0  0  0  0  0  0  0  0  0  0  0  0
   63.7590   83.9120   30.6490 C   0  0  0  0  0  0  0  0  0  0  0  0
   64.9820   84.3240   31.4840 C   0  0  0  0  0  0  0  0  0  0  0  0
   66.0920   83.4270   31.3460 O   0  0  0  0  0  0  0  0  0  0  0  0
   65.6950   82.0870   31.0200 C   0  0  0  0  0  0  0  0  0  0  0  0
   64.3110   81.7320   31.5790 C   0  0  0  0  0  0  0  0  0  0  0  0
   59.9780   81.1710   32.0550 C   0  0  0  0  0  0  0  0  0  0  0  0
   58.8460   80.5660   31.4990 C   0  0  0  0  0  0  0  0  0  0  0  0
   55.9260   78.6060   28.3470 C   0  0  0  0  0  0  0  0  0  0  0  0
   55.2070   79.1530   27.2790 C   0  0  0  0  0  0  0  0  0  0  0  0
   55.7050   80.1460   26.5290 F   0  0  0  0  0  0  0  0  0  0  0  0
   53.9250   78.6970   26.9570 C   0  0  0  0  0  0  0  0  0  0  0  0
   53.3350   77.6810   27.7020 C   0  0  0  0  0  0  0  0  0  0  0  0
   54.0330   77.1250   28.7700 C   0  0  0  0  0  0  0  0  0  0  0  0
   55.3130   77.5880   29.0840 C   0  0  0  0  0  0  0  0  0  0  0  0
   55.9370   77.0170   30.1260 F   0  0  0  0  0  0  0  0  0  0  0  0
   56.5380   80.3230   30.1320 H   0  0  0  0  0  0  0  0  0  0  0  0
   59.2075   81.5795   28.2686 H   0  0  0  0  0  0  0  0  0  0  0  0
   61.2197   82.6609   29.2562 H   0  0  0  0  0  0  0  0  0  0  0  0
   61.8155   83.6467   32.0629 H   0  0  0  0  0  0  0  0  0  0  0  0
   62.3285   82.0436   32.7706 H   0  0  0  0  0  0  0  0  0  0  0  0
   64.0420   83.9283   29.5862 H   0  0  0  0  0  0  0  0  0  0  0  0
   62.9555   84.6273   30.8788 H   0  0  0  0  0  0  0  0  0  0  0  0
   65.3016   85.3266   31.1637 H   0  0  0  0  0  0  0  0  0  0  0  0
   64.6766   84.3038   32.5405 H   0  0  0  0  0  0  0  0  0  0  0  0
   65.6707   81.9827   29.9252 H   0  0  0  0  0  0  0  0  0  0  0  0
   66.4252   81.4018   31.4753 H   0  0  0  0  0  0  0  0  0  0  0  0
   64.1011   80.6736   31.3649 H   0  0  0  0  0  0  0  0  0  0  0  0
   64.3207   81.9215   32.6625 H   0  0  0  0  0  0  0  0  0  0  0  0
   60.1842   81.0572   33.1295 H   0  0  0  0  0  0  0  0  0  0  0  0
   58.1742   79.9766   32.1404 H   0  0  0  0  0  0  0  0  0  0  0  0
   53.3810   79.1433   26.1115 H   0  0  0  0  0  0  0  0  0  0  0  0
   52.3268   77.3207   27.4495 H   0  0  0  0  0  0  0  0  0  0  0  0
   53.5769   76.3213   29.3666 H   0  0  0  0  0  0  0  0  0  0  0  0
  1  2  2  0
  2  3  1  0
  3  4  1  0
  4  5  1  0
  5  6  2  0
  6  7  1  0
  7  8  1  0
  8  9  1  0
  9 10  1  0
 10 11  1  0
 11 12  1  0
 12 13  1  0
 13 14  1  0
  7 15  2  0
 15 16  1  0
  2 17  1  0
 17 18  2  0
 18 19  1  0
 18 20  1  0
 20 21  2  0
 21 22  1  0
 22 23  2  0
 23 24  1  0
 16  4  2  0
 23 17  1  0
 14  9  1  0
  3 25  1  0
  5 26  1  0
  6 27  1  0
  8 28  1  0
  8 29  1  0
 10 30  1  0
 10 31  1  0
 11 32  1  0
 11 33  1  0
 13 34  1  0
 13 35  1  0
 14 36  1  0
 14 37  1  0
 15 38  1  0
 16 39  1  0
 20 40  1  0
 21 41  1  0
 22 42  1  0
M  END
>  <meeko>  (1) 
{"is_sidechain": false}

>  <smiles>  (1) 
O=C(Nc1ccc(CN2CCOCC2)cc1)c1c(F)cccc1F

>  <vina_score>  (1) 
-7.631

>  <job_id>  (1) 
62e6b73524b55ce2

$$$$
