
     RDKit          3D

 72 77  0  0  0  0  0  0  0  0999 V2000
   63.5000   85.5300   38.5970 C   0  0  0  0  0  0  0  0  0  0  0  0
   63.8570   84.5000   37.5260 C   0  0  2  0  0  0  0  0  0  0  0  0
   65.2440   84.0450   37.7000 N   0  0  0  0  0  0  0  0  0  0  0  0
   63.5570   85.0060   36.0840 C   0  0  0  0  0  0  0  0  0  0  0  0
   62.5410   84.2750   35.2980 N   0  0  0  0  0  0  0  0  0  0  0  0
   62.6150   82.8330   35.5910 C   0  0  0  0  0  0  0  0  0  0  0  0
   61.4400   82.0920   34.9500 C   0  0  0  0  0  0  0  0  0  0  0  0
   61.3100   82.4150   33.4890 C   0  0  0  0  0  0  0  0  0  0  0  0
   60.5960   81.5410   32.7320 N   0  0  0  0  0  0  0  0  0  0  0  0
   60.4030   81.8080   31.4220 C   0  0  0  0  0  0  0  0  0  0  0  0
   59.6790   80.9030   30.6430 N   0  0  0  0  0  0  0  0  0  0  0  0
   58.2890   80.6740   31.0770 C   0  0  0  0  0  0  0  0  0  0  0  0
   57.6490   79.5130   30.2800 C   0  0  0  0  0  0  0  0  0  0  0  0
   57.8140   79.6440   28.8050 N   0  0  0  0  0  0  0  0  0  0  0  0
   56.5760   79.4970   28.1310 C   0  0  0  0  0  0  0  0  0  0  0  0
   56.1940   80.4420   27.2430 N   0  0  0  0  0  0  0  0  0  0  0  0
   54.9860   80.3760   26.6140 N   0  0  0  0  0  0  0  0  0  0  0  0
   54.1420   79.3490   26.8640 C   0  0  0  0  0  0  0  0  0  0  0  0
   52.8390   79.4050   26.1000 C   0  0  0  0  0  0  0  0  0  0  0  0
   52.7560   80.4890   25.0450 C   0  0  0  0  0  0  0  0  0  0  0  0
   52.6780   81.8440   25.4040 C   0  0  0  0  0  0  0  0  0  0  0  0
   52.5800   82.8330   24.4240 C   0  0  0  0  0  0  0  0  0  0  0  0
   52.5460   82.4820   23.0780 C   0  0  0  0  0  0  0  0  0  0  0  0
   52.6040   81.1410   22.7070 C   0  0  0  0  0  0  0  0  0  0  0  0
   52.7030   80.1490   23.6850 C   0  0  0  0  0  0  0  0  0  0  0  0
   54.4800   78.3160   27.7580 C   0  0  0  0  0  0  0  0  0  0  0  0
   53.6360   77.2130   28.0400 C   0  0  0  0  0  0  0  0  0  0  0  0
   54.0230   76.1960   28.9150 C   0  0  0  0  0  0  0  0  0  0  0  0
   55.2650   76.2520   29.5260 C   0  0  0  0  0  0  0  0  0  0  0  0
   56.1110   77.3300   29.2670 C   0  0  0  0  0  0  0  0  0  0  0  0
   55.7380   78.3880   28.3990 C   0  0  0  0  0  0  0  0  0  0  0  0
   58.5530   80.8570   28.3950 C   0  0  0  0  0  0  0  0  0  0  0  0
   59.8800   80.9810   29.1790 C   0  0  0  0  0  0  0  0  0  0  0  0
   60.9580   82.9510   30.8480 C   0  0  0  0  0  0  0  0  0  0  0  0
   61.6910   83.8420   31.6280 C   0  0  0  0  0  0  0  0  0  0  0  0
   61.8670   83.5850   32.9860 C   0  0  0  0  0  0  0  0  0  0  0  0
   62.6990   84.5040   33.8480 C   0  0  0  0  0  0  0  0  0  0  0  0
   63.6524   85.0904   39.5938 H   0  0  0  0  0  0  0  0  0  0  0  0
   64.1439   86.4146   38.4841 H   0  0  0  0  0  0  0  0  0  0  0  0
   62.4467   85.8264   38.4841 H   0  0  0  0  0  0  0  0  0  0  0  0
   63.2018   83.6268   37.6612 H   0  0  0  0  0  0  0  0  0  0  0  0
   65.4270   83.2690   37.0650 H   0  0  0  0  0  0  0  0  0  0  0  0
   65.8820   84.7930   37.4340 H   0  0  0  0  0  0  0  0  0  0  0  0
   63.2210   86.0503   36.1653 H   0  0  0  0  0  0  0  0  0  0  0  0
   64.4974   84.8534   35.5340 H   0  0  0  0  0  0  0  0  0  0  0  0
   63.5575   82.4308   35.1910 H   0  0  0  0  0  0  0  0  0  0  0  0
   62.5722   82.6900   36.6808 H   0  0  0  0  0  0  0  0  0  0  0  0
   61.5970   81.0092   35.0631 H   0  0  0  0  0  0  0  0  0  0  0  0
   60.5165   82.4113   35.4553 H   0  0  0  0  0  0  0  0  0  0  0  0
   58.2823   80.4230   32.1480 H   0  0  0  0  0  0  0  0  0  0  0  0
   57.7073   81.5896   30.8947 H   0  0  0  0  0  0  0  0  0  0  0  0
   58.1172   78.5707   30.6006 H   0  0  0  0  0  0  0  0  0  0  0  0
   56.5691   79.5337   30.4883 H   0  0  0  0  0  0  0  0  0  0  0  0
   52.6940   78.4345   25.6029 H   0  0  0  0  0  0  0  0  0  0  0  0
   52.0606   79.6398   26.8409 H   0  0  0  0  0  0  0  0  0  0  0  0
   52.6943   82.1286   26.4664 H   0  0  0  0  0  0  0  0  0  0  0  0
   52.5295   83.8922   24.7164 H   0  0  0  0  0  0  0  0  0  0  0  0
   52.4733   83.2635   22.3073 H   0  0  0  0  0  0  0  0  0  0  0  0
   52.5718   80.8630   21.6432 H   0  0  0  0  0  0  0  0  0  0  0  0
   52.7398   79.0910   23.3861 H   0  0  0  0  0  0  0  0  0  0  0  0
   52.6495   77.1565   27.5566 H   0  0  0  0  0  0  0  0  0  0  0  0
   53.3447   75.3542   29.1182 H   0  0  0  0  0  0  0  0  0  0  0  0
   55.5818   75.4516   30.2108 H   0  0  0  0  0  0  0  0  0  0  0  0
   57.0983   77.3608   29.7509 H   0  0  0  0  0  0  0  0  0  0  0  0
   58.7737   80.7987   27.3189 H   0  0  0  0  0  0  0  0  0  0  0  0
   57.9317   81.7388   28.6105 H   0  0  0  0  0  0  0  0  0  0  0  0
   60.5503   80.1653   28.8704 H   0  0  0  0  0  0  0  0  0  0  0  0
   60.3133   81.9662   28.9517 H   0  0  0  0  0  0  0  0  0  0  0  0
   60.8164   83.1497   29.7754 H   0  0  0  0  0  0  0  0  0  0  0  0
   62.1285   84.7436   31.1745 H   0  0  0  0  0  0  0  0  0  0  0  0
   63.7577   84.3572   33.5882 H   0  0  0  0  0  0  0  0  0  0  0  0
   62.3514   85.5283   33.6482 H   0  0  0  0  0  0  0  0  0  0  0  0
  1  2  1  0
  2  3  1  0
  2  4  1  0
  4  5  1  0
  5  6  1  0
  6  7  1  0
  7  8  1  0
  8  9  1  0
  9 10  2  0
 10 11  1  0
 11 12  1  0
 12 13  1  0
 13 14  1  0
 14 15  1  0
 15 16  1  0
 16 17  2  0
 17 18  1  0
 18 19  1  0
 19 20  1  0
 20 21  2  0
 21 22  1  0
 22 23  2  0
 23 24  1  0
 24 25  2  0
 18 26  2  0
 26 27  1  0
 27 28  2  0
 28 29  1  0
 29 30  2  0
 30 31  1  0
 14 32  1  0
 32 33  1  0
 10 34  1  0
 34 35  2  0
 35 36  1  0
 36 37  1  0
 37  5  1  0
 36  8  2  0
 33 11  1  0
 31 15  2  0
 25 20  1  0
 31 26  1  0
  1 38  1  0
  1 39  1  0
  1 40  1  0
  2 41  1  1
  3 42  1  0
  3 43  1  0
  4 44  1  0
  4 45  1  0
  6 46  1  0
  6 47  1  0
  7 48  1  0
  7 49  1  0
 12 50  1  0
 12 51  1  0
 13 52  1  0
 13 53  1  0
 19 54  1  0
 19 55  1  0
 21 56  1  0
 22 57  1  0
 23 58  1  0
 24 59  1  0
 25 60  1  0
 27 61  1  0
 28 62  1  0
 29 63  1  0
 30 64  1  0
 32 65  1  0
 32 66  1  0
 33 67  1  0
 33 68  1  0
 34 69  1  0
 35 70  1  0
 37 71  1  0
 37 72  1  0
M  END
>  <meeko>  (1) 
{"is_sidechain": false}

>  <smiles>  (1) 
C[C@H](N)CN1CCc2nc(N3CCN(c4nnc(Cc5ccccc5)c5ccccc45)CC3)ccc2C1

>  <vina_score>  (1) 
-8.981

>  <job_id>  (1) 
62fb6e5ea3428e89

$$$$
