
     RDKit          3D

 54 56  0  0  0  0  0  0  0  0999 V2000
   52.4270   76.6390   27.5070 C   0  0  0  0  0  0  0  0  0  0  0  0
   53.6710   77.1590   28.0180 N   0  0  0  0  0  0  0  0  0  0  0  0
   54.3350   78.1680   27.3470 C   0  0  0  0  0  0  0  0  0  0  0  0
   53.9610   78.6240   26.2730 O   0  0  0  0  0  0  0  0  0  0  0  0
   55.5380   78.7280   28.0230 C   0  0  0  0  0  0  0  0  0  0  0  0
   56.3160   79.7350   27.4430 C   0  0  0  0  0  0  0  0  0  0  0  0
   57.4350   80.2330   28.1180 C   0  0  0  0  0  0  0  0  0  0  0  0
   57.7940   79.7370   29.3800 C   0  0  0  0  0  0  0  0  0  0  0  0
   59.0100   80.3030   30.0940 C   0  0  0  0  0  0  0  0  0  0  0  0
   58.7530   80.6090   31.5740 C   0  0  0  0  0  0  0  0  0  0  0  0
   60.0440   81.0690   32.2700 C   0  0  0  0  0  0  0  0  0  0  0  0
   60.9420   81.8250   31.3990 N   0  0  0  0  0  0  0  0  0  0  0  0
   62.0340   82.5970   32.0240 C   0  0  0  0  0  0  0  0  0  0  0  0
   63.3930   81.8770   32.1960 C   0  0  0  0  0  0  0  0  0  0  0  0
   64.3480   82.0440   31.0200 C   0  0  0  0  0  0  0  0  0  0  0  0
   64.4670   83.4510   30.6610 N   0  0  0  0  0  0  0  0  0  0  0  0
   65.6220   84.1400   31.0070 C   0  0  0  0  0  0  0  0  0  0  0  0
   65.6660   85.6140   30.6980 C   0  0  0  0  0  0  0  0  0  0  0  0
   66.5900   83.5940   31.5390 O   0  0  0  0  0  0  0  0  0  0  0  0
   63.2080   84.0770   30.2690 C   0  0  0  0  0  0  0  0  0  0  0  0
   62.2130   84.0130   31.4240 C   0  0  0  0  0  0  0  0  0  0  0  0
   60.2330   82.5410   30.3400 C   0  0  0  0  0  0  0  0  0  0  0  0
   59.5680   81.5490   29.3780 C   0  0  0  0  0  0  0  0  0  0  0  0
   56.9940   78.7420   29.9630 C   0  0  0  0  0  0  0  0  0  0  0  0
   55.8750   78.2440   29.2920 C   0  0  0  0  0  0  0  0  0  0  0  0
   51.7716   76.3650   28.3468 H   0  0  0  0  0  0  0  0  0  0  0  0
   51.9338   77.4063   26.8922 H   0  0  0  0  0  0  0  0  0  0  0  0
   52.6266   75.7490   26.8922 H   0  0  0  0  0  0  0  0  0  0  0  0
   53.8680   77.0220   29.0000 H   0  0  0  0  0  0  0  0  0  0  0  0
   56.0474   80.1359   26.4545 H   0  0  0  0  0  0  0  0  0  0  0  0
   58.0416   81.0241   27.6531 H   0  0  0  0  0  0  0  0  0  0  0  0
   59.7687   79.5075   30.0551 H   0  0  0  0  0  0  0  0  0  0  0  0
   57.9983   81.4055   31.6515 H   0  0  0  0  0  0  0  0  0  0  0  0
   58.3953   79.6925   32.0659 H   0  0  0  0  0  0  0  0  0  0  0  0
   59.7704   81.7059   33.1241 H   0  0  0  0  0  0  0  0  0  0  0  0
   60.5837   80.1620   32.5798 H   0  0  0  0  0  0  0  0  0  0  0  0
   61.6605   82.7053   33.0530 H   0  0  0  0  0  0  0  0  0  0  0  0
   63.8826   82.2770   33.0961 H   0  0  0  0  0  0  0  0  0  0  0  0
   63.1713   80.8021   32.2698 H   0  0  0  0  0  0  0  0  0  0  0  0
   65.3386   81.6557   31.2991 H   0  0  0  0  0  0  0  0  0  0  0  0
   63.9541   81.4867   30.1573 H   0  0  0  0  0  0  0  0  0  0  0  0
   65.6831   86.1853   31.6378 H   0  0  0  0  0  0  0  0  0  0  0  0
   66.5713   85.8396   30.1153 H   0  0  0  0  0  0  0  0  0  0  0  0
   64.7758   85.8932   30.1153 H   0  0  0  0  0  0  0  0  0  0  0  0
   63.3910   85.1287   30.0034 H   0  0  0  0  0  0  0  0  0  0  0  0
   62.7919   83.5412   29.4031 H   0  0  0  0  0  0  0  0  0  0  0  0
   62.5649   84.6844   32.2211 H   0  0  0  0  0  0  0  0  0  0  0  0
   61.2353   84.3124   31.0184 H   0  0  0  0  0  0  0  0  0  0  0  0
   59.4611   83.1826   30.7900 H   0  0  0  0  0  0  0  0  0  0  0  0
   60.9536   83.1542   29.7790 H   0  0  0  0  0  0  0  0  0  0  0  0
   58.7398   82.0593   28.8645 H   0  0  0  0  0  0  0  0  0  0  0  0
   60.3384   81.2069   28.6713 H   0  0  0  0  0  0  0  0  0  0  0  0
   57.2510   78.3505   30.9583 H   0  0  0  0  0  0  0  0  0  0  0  0
   55.2552   77.4671   29.7635 H   0  0  0  0  0  0  0  0  0  0  0  0
  1  2  1  0
  2  3  1  0
  3  4  2  0
  3  5  1  0
  5  6  1  0
  6  7  2  0
  7  8  1  0
  8  9  1  0
  9 10  1  0
 10 11  1  0
 11 12  1  0
 12 13  1  0
 13 14  1  0
 14 15  1  0
 15 16  1  0
 16 17  1  0
 17 18  1  0
 17 19  2  0
 16 20  1  0
 20 21  1  0
 12 22  1  0
 22 23  1  0
  8 24  2  0
 24 25  1  0
 25  5  2  0
 23  9  1  0
 21 13  1  0
  1 26  1  0
  1 27  1  0
  1 28  1  0
  2 29  1  0
  6 30  1  0
  7 31  1  0
  9 32  1  0
 10 33  1  0
 10 34  1  0
 11 35  1  0
 11 36  1  0
 13 37  1  0
 14 38  1  0
 14 39  1  0
 15 40  1  0
 15 41  1  0
 18 42  1  0
 18 43  1  0
 18 44  1  0
 20 45  1  0
 20 46  1  0
 21 47  1  0
 21 48  1  0
 22 49  1  0
 22 50  1  0
 23 51  1  0
 23 52  1  0
 24 53  1  0
 25 54  1  0
M  END
>  <meeko>  (1) 
{"is_sidechain": false}

>  <smiles>  (1) 
CNC(=O)c1ccc(C2CCN(C3CCN(C(C)=O)CC3)CC2)cc1

>  <vina_score>  (1) 
-7.806

>  <job_id>  (1) 
63002048bb236e8d

$$$$
