
     RDKit          3D

 47 49  0  0  0  0  0  0  0  0999 V2000
   52.1870   76.0820   27.9350 C   0  0  0  0  0  0  0  0  0  0  0  0
   53.1810   77.1820   27.7190 C   0  0  0  0  0  0  0  0  0  0  0  0
   53.0060   78.0870   26.6900 C   0  0  0  0  0  0  0  0  0  0  0  0
   53.9650   79.0740   26.5560 C   0  0  0  0  0  0  0  0  0  0  0  0
   53.8470   80.1170   25.4620 C   0  0  0  0  0  0  0  0  0  0  0  0
   53.1650   81.3920   25.9830 C   0  0  0  0  0  0  0  0  0  0  0  0
   53.0120   82.4380   24.8790 C   0  0  0  0  0  0  0  0  0  0  0  0
   52.2630   81.8680   23.6690 C   0  0  0  0  0  0  0  0  0  0  0  0
   52.1840   82.8620   22.6010 N   0  0  0  0  0  0  0  0  0  0  0  0
   52.9470   80.6010   23.1440 C   0  0  0  0  0  0  0  0  0  0  0  0
   53.0990   79.5510   24.2450 C   0  0  0  0  0  0  0  0  0  0  0  0
   55.0240   79.1590   27.3880 N   0  0  0  0  0  0  0  0  0  0  0  0
   55.1190   78.2320   28.3580 C   0  0  0  0  0  0  0  0  0  0  0  0
   56.2780   78.3350   29.3080 C   0  0  0  0  0  0  0  0  0  0  0  0
   57.5200   78.8410   28.5770 C   0  0  0  0  0  0  0  0  0  0  0  0
   58.2680   79.8630   29.3970 C   0  0  0  0  0  0  0  0  0  0  0  0
   59.0400   80.8490   28.7700 C   0  0  0  0  0  0  0  0  0  0  0  0
   59.7170   81.8060   29.5280 C   0  0  0  0  0  0  0  0  0  0  0  0
   59.6230   81.7890   30.9190 C   0  0  0  0  0  0  0  0  0  0  0  0
   58.8530   80.8150   31.5520 C   0  0  0  0  0  0  0  0  0  0  0  0
   58.1760   79.8570   30.7960 C   0  0  0  0  0  0  0  0  0  0  0  0
   54.2310   77.2420   28.5620 N   0  0  0  0  0  0  0  0  0  0  0  0
   52.0440   75.9237   29.0141 H   0  0  0  0  0  0  0  0  0  0  0  0
   51.2272   76.3595   27.4747 H   0  0  0  0  0  0  0  0  0  0  0  0
   52.5600   75.1552   27.4747 H   0  0  0  0  0  0  0  0  0  0  0  0
   52.1442   78.0253   26.0092 H   0  0  0  0  0  0  0  0  0  0  0  0
   54.8640   80.3874   25.1417 H   0  0  0  0  0  0  0  0  0  0  0  0
   52.1684   81.1317   26.3691 H   0  0  0  0  0  0  0  0  0  0  0  0
   53.7942   81.8192   26.7777 H   0  0  0  0  0  0  0  0  0  0  0  0
   52.4508   83.2972   25.2752 H   0  0  0  0  0  0  0  0  0  0  0  0
   54.0161   82.7454   24.5515 H   0  0  0  0  0  0  0  0  0  0  0  0
   51.2459   81.6077   23.9972 H   0  0  0  0  0  0  0  0  0  0  0  0
   52.4770   82.4400   21.7190 H   0  0  0  0  0  0  0  0  0  0  0  0
   51.2170   83.1540   22.4650 H   0  0  0  0  0  0  0  0  0  0  0  0
   52.3412   80.1791   22.3285 H   0  0  0  0  0  0  0  0  0  0  0  0
   53.9504   80.8732   22.7848 H   0  0  0  0  0  0  0  0  0  0  0  0
   52.0997   79.2183   24.5624 H   0  0  0  0  0  0  0  0  0  0  0  0
   53.6816   78.7095   23.8420 H   0  0  0  0  0  0  0  0  0  0  0  0
   56.0228   79.0352   30.1171 H   0  0  0  0  0  0  0  0  0  0  0  0
   56.4890   77.3388   29.7240 H   0  0  0  0  0  0  0  0  0  0  0  0
   58.1861   77.9897   28.3732 H   0  0  0  0  0  0  0  0  0  0  0  0
   57.1975   79.3197   27.6406 H   0  0  0  0  0  0  0  0  0  0  0  0
   59.1134   80.8695   27.6726 H   0  0  0  0  0  0  0  0  0  0  0  0
   60.3250   82.5740   29.0275 H   0  0  0  0  0  0  0  0  0  0  0  0
   60.1560   82.5435   31.5161 H   0  0  0  0  0  0  0  0  0  0  0  0
   58.7787   80.8013   32.6494 H   0  0  0  0  0  0  0  0  0  0  0  0
   57.5667   79.0928   31.3007 H   0  0  0  0  0  0  0  0  0  0  0  0
  1  2  1  0
  2  3  2  0
  3  4  1  0
  4  5  1  0
  5  6  1  0
  6  7  1  0
  7  8  1  0
  8  9  1  0
  8 10  1  0
 10 11  1  0
  4 12  2  0
 12 13  1  0
 13 14  1  0
 14 15  1  0
 15 16  1  0
 16 17  2  0
 17 18  1  0
 18 19  2  0
 19 20  1  0
 20 21  2  0
 13 22  2  0
 22  2  1  0
 11  5  1  0
 21 16  1  0
  1 23  1  0
  1 24  1  0
  1 25  1  0
  3 26  1  0
  5 27  1  0
  6 28  1  0
  6 29  1  0
  7 30  1  0
  7 31  1  0
  8 32  1  0
  9 33  1  0
  9 34  1  0
 10 35  1  0
 10 36  1  0
 11 37  1  0
 11 38  1  0
 14 39  1  0
 14 40  1  0
 15 41  1  0
 15 42  1  0
 17 43  1  0
 18 44  1  0
 19 45  1  0
 20 46  1  0
 21 47  1  0
M  END
>  <meeko>  (1) 
{"is_sidechain": false}

>  <smiles>  (1) 
Cc1cc(C2CCC(N)CC2)nc(CCc2ccccc2)n1

>  <vina_score>  (1) 
-8.768

>  <job_id>  (1) 
6300bad62644bcc4

$$$$
