
     RDKit          3D

 69 71  0  0  0  0  0  0  0  0999 V2000
   66.7430   83.6080   30.7790 C   0  0  0  0  0  0  0  0  0  0  0  0
   65.3850   83.0500   31.0200 C   0  0  0  0  0  0  0  0  0  0  0  0
   65.1520   81.9050   31.6230 N   0  0  0  0  0  0  0  0  0  0  0  0
   63.7980   81.7560   31.6200 C   0  0  0  0  0  0  0  0  0  0  0  0
   63.1650   82.8150   30.9960 C   0  0  0  0  0  0  0  0  0  0  0  0
   61.7380   82.9980   30.7750 C   0  0  0  0  0  0  0  0  0  0  0  0
   61.1850   82.1350   29.8950 N   0  0  0  0  0  0  0  0  0  0  0  0
   59.8610   82.2300   29.6780 C   0  0  0  0  0  0  0  0  0  0  0  0
   59.3530   81.3080   28.7700 N   0  0  0  0  0  0  0  0  0  0  0  0
   58.3110   80.3770   28.8090 C   0  0  0  0  0  0  0  0  0  0  0  0
   58.0720   79.6880   30.0100 C   0  0  0  0  0  0  0  0  0  0  0  0
   57.0520   78.7320   30.1210 C   0  0  0  0  0  0  0  0  0  0  0  0
   56.2450   78.4400   29.0200 C   0  0  0  0  0  0  0  0  0  0  0  0
   55.1450   77.4300   29.0740 C   0  0  0  0  0  0  0  0  0  0  0  0
   55.4100   76.2580   29.3320 O   0  0  0  0  0  0  0  0  0  0  0  0
   53.7270   77.8850   28.8320 C   0  0  0  0  0  0  0  0  0  0  0  0
   53.1450   77.3360   27.5520 C   0  0  0  0  0  0  0  0  0  0  0  0
   52.5990   76.2310   27.5310 O   0  0  0  0  0  0  0  0  0  0  0  0
   53.3100   78.1710   26.2920 C   0  0  0  0  0  0  0  0  0  0  0  0
   52.9600   79.6400   26.5130 C   0  0  0  0  0  0  0  0  0  0  0  0
   53.7020   80.5710   25.5510 C   0  0  0  0  0  0  0  0  0  0  0  0
   52.7150   81.5290   24.9660 N   0  0  0  0  0  0  0  0  0  0  0  0
   53.1140   82.9670   25.1460 C   0  0  0  0  0  0  0  0  0  0  0  0
   53.6540   83.2320   26.5540 C   0  0  0  0  0  0  0  0  0  0  0  0
   55.2820   84.0490   26.5200 S   0  0  0  0  0  0  0  0  0  0  0  0
   52.2510   81.1650   23.3590 S   0  0  0  0  0  6  0  0  0  0  0  0
   52.5600   82.3220   22.5470 O   0  0  0  0  0  0  0  0  0  0  0  0
   50.9190   80.6070   23.3990 O   0  0  0  0  0  0  0  0  0  0  0  0
   56.4770   79.1110   27.8170 C   0  0  0  0  0  0  0  0  0  0  0  0
   57.4990   80.0640   27.7150 C   0  0  0  0  0  0  0  0  0  0  0  0
   59.0820   83.1410   30.2830 N   0  0  0  0  0  0  0  0  0  0  0  0
   59.6690   83.9790   31.1630 C   0  0  0  0  0  0  0  0  0  0  0  0
   61.0060   83.9460   31.4520 C   0  0  0  0  0  0  0  0  0  0  0  0
   61.5450   84.7970   32.3340 F   0  0  0  0  0  0  0  0  0  0  0  0
   64.1990   83.6700   30.6480 N   0  0  0  0  0  0  0  0  0  0  0  0
   64.1310   85.0070   30.0580 C   0  0  0  0  0  0  0  0  0  0  0  0
   64.4120   86.1110   31.0760 C   0  0  0  0  0  0  0  0  0  0  0  0
   64.9400   85.1830   28.7700 C   0  0  0  0  0  0  0  0  0  0  0  0
   67.2331   83.8094   31.7430 H   0  0  0  0  0  0  0  0  0  0  0  0
   67.3413   82.8828   30.2079 H   0  0  0  0  0  0  0  0  0  0  0  0
   66.6586   84.5443   30.2079 H   0  0  0  0  0  0  0  0  0  0  0  0
   63.2716   80.8966   32.0609 H   0  0  0  0  0  0  0  0  0  0  0  0
   59.9530   81.2900   27.9580 H   0  0  0  0  0  0  0  0  0  0  0  0
   58.7013   79.9041   30.8859 H   0  0  0  0  0  0  0  0  0  0  0  0
   56.8877   78.2119   31.0762 H   0  0  0  0  0  0  0  0  0  0  0  0
   53.1025   77.5505   29.6735 H   0  0  0  0  0  0  0  0  0  0  0  0
   53.7422   78.9814   28.7444 H   0  0  0  0  0  0  0  0  0  0  0  0
   54.3563   78.1041   25.9592 H   0  0  0  0  0  0  0  0  0  0  0  0
   52.6180   77.7733   25.5351 H   0  0  0  0  0  0  0  0  0  0  0  0
   51.8777   79.7707   26.3658 H   0  0  0  0  0  0  0  0  0  0  0  0
   53.2643   79.9056   27.5362 H   0  0  0  0  0  0  0  0  0  0  0  0
   54.4796   81.1257   26.0966 H   0  0  0  0  0  0  0  0  0  0  0  0
   54.1798   79.9855   24.7517 H   0  0  0  0  0  0  0  0  0  0  0  0
   53.8949   83.2150   24.4120 H   0  0  0  0  0  0  0  0  0  0  0  0
   52.2212   83.5921   24.9975 H   0  0  0  0  0  0  0  0  0  0  0  0
   52.9438   83.8783   27.0906 H   0  0  0  0  0  0  0  0  0  0  0  0
   53.7717   82.2625   27.0601 H   0  0  0  0  0  0  0  0  0  0  0  0
   55.8230   83.2210   25.6130 H   0  0  0  0  0  0  0  0  0  0  0  0
   53.0650   80.1710   22.9330 H   0  0  0  0  0  0  0  0  0  0  0  0
   55.8507   78.8888   26.9404 H   0  0  0  0  0  0  0  0  0  0  0  0
   57.6656   80.5757   26.7556 H   0  0  0  0  0  0  0  0  0  0  0  0
   59.0419   84.7251   31.6729 H   0  0  0  0  0  0  0  0  0  0  0  0
   63.0825   85.1125   29.7424 H   0  0  0  0  0  0  0  0  0  0  0  0
   64.3090   85.7063   32.0936 H   0  0  0  0  0  0  0  0  0  0  0  0
   65.4351   86.4893   30.9337 H   0  0  0  0  0  0  0  0  0  0  0  0
   63.6943   86.9324   30.9337 H   0  0  0  0  0  0  0  0  0  0  0  0
   65.9862   85.4106   29.0223 H   0  0  0  0  0  0  0  0  0  0  0  0
   64.8984   84.2548   28.1812 H   0  0  0  0  0  0  0  0  0  0  0  0
   64.5166   86.0100   28.1812 H   0  0  0  0  0  0  0  0  0  0  0  0
  1  2  1  0
  2  3  2  0
  3  4  1  0
  4  5  2  0
  5  6  1  0
  6  7  2  0
  7  8  1  0
  8  9  1  0
  9 10  1  0
 10 11  1  0
 11 12  2  0
 12 13  1  0
 13 14  1  0
 14 15  2  0
 14 16  1  0
 16 17  1  0
 17 18  2  0
 17 19  1  0
 19 20  1  0
 20 21  1  0
 21 22  1  0
 22 23  1  0
 23 24  1  0
 24 25  1  0
 22 26  1  0
 26 27  2  0
 26 28  2  0
 13 29  2  0
 29 30  1  0
  8 31  2  0
 31 32  1  0
 32 33  2  0
 33 34  1  0
  5 35  1  0
 35 36  1  0
 36 37  1  0
 36 38  1  0
 35  2  1  0
 33  6  1  0
 30 10  2  0
  1 39  1  0
  1 40  1  0
  1 41  1  0
  4 42  1  0
  9 43  1  0
 11 44  1  0
 12 45  1  0
 16 46  1  0
 16 47  1  0
 19 48  1  0
 19 49  1  0
 20 50  1  0
 20 51  1  0
 21 52  1  0
 21 53  1  0
 23 54  1  0
 23 55  1  0
 24 56  1  0
 24 57  1  0
 25 58  1  0
 26 59  1  0
 29 60  1  0
 30 61  1  0
 32 62  1  0
 36 63  1  0
 37 64  1  0
 37 65  1  0
 37 66  1  0
 38 67  1  0
 38 68  1  0
 38 69  1  0
M  END
>  <meeko>  (1) 
{"is_sidechain": false}

>  <smiles>  (1) 
Cc1ncc(-c2nc(Nc3ccc(C(=O)CC(=O)CCCN(CCS)[SH](=O)=O)cc3)ncc2F)n1C(C)C

>  <vina_score>  (1) 
-8.013

>  <job_id>  (1) 
635bb7beb8fbad0e

$$$$
