
     RDKit          3D

 62 65  0  0  0  0  0  0  0  0999 V2000
   52.5600   81.7320   22.0710 C   0  0  0  0  0  0  0  0  0  0  0  0
   52.1560   81.8430   23.4310 O   0  0  0  0  0  0  0  0  0  0  0  0
   52.8060   81.0380   24.3320 C   0  0  0  0  0  0  0  0  0  0  0  0
   53.3100   79.7630   24.0850 C   0  0  0  0  0  0  0  0  0  0  0  0
   53.9570   79.0550   25.1080 C   0  0  0  0  0  0  0  0  0  0  0  0
   54.1190   79.6110   26.3900 C   0  0  0  0  0  0  0  0  0  0  0  0
   54.7990   78.8700   27.4620 C   0  0  0  0  0  0  0  0  0  0  0  0
   56.0790   79.2720   27.6700 N   0  0  0  0  0  0  0  0  0  0  0  0
   56.7830   78.6550   28.6230 C   0  0  0  0  0  0  0  0  0  0  0  0
   58.0880   79.1020   28.7800 N   0  0  0  0  0  0  0  0  0  0  0  0
   58.2490   80.4090   29.4160 C   0  0  0  0  0  0  0  0  0  0  0  0
   57.9290   80.3230   30.9210 C   0  0  0  0  0  0  0  0  0  0  0  0
   59.1910   80.1730   31.7650 C   0  0  0  0  0  0  0  0  0  0  0  0
   60.1170   81.2910   31.5540 N   0  0  0  0  0  0  0  0  0  0  0  0
   60.6070   82.0680   32.5960 C   0  0  0  0  0  0  0  0  0  0  0  0
   60.8710   83.2610   32.4450 O   0  0  0  0  0  0  0  0  0  0  0  0
   60.7650   81.4310   33.8210 N   0  0  0  0  0  0  0  0  0  0  0  0
   61.5770   80.2110   33.8790 C   0  0  0  0  0  0  0  0  0  0  0  0
   61.4290   79.4820   35.2280 C   0  0  0  0  0  0  0  0  0  0  0  0
   61.6470   80.3280   36.4200 N   0  0  0  0  0  0  0  0  0  0  0  0
   63.0600   80.6470   36.6090 C   0  0  0  0  0  0  0  0  0  0  0  0
   60.8240   81.5520   36.3090 C   0  0  0  0  0  0  0  0  0  0  0  0
   60.9610   82.3090   34.9740 C   0  0  0  0  0  0  0  0  0  0  0  0
   60.1100   81.8980   30.2280 C   0  0  0  0  0  0  0  0  0  0  0  0
   59.6830   80.9060   29.1580 C   0  0  0  0  0  0  0  0  0  0  0  0
   56.2940   77.6750   29.3880 N   0  0  0  0  0  0  0  0  0  0  0  0
   55.0230   77.2910   29.1510 C   0  0  0  0  0  0  0  0  0  0  0  0
   54.2020   77.8520   28.1940 C   0  0  0  0  0  0  0  0  0  0  0  0
   52.5610   77.2340   27.9370 S   0  0  0  0  0  0  0  0  0  0  0  0
   53.0230   75.2760   27.6450 Cl  0  0  0  0  0  0  0  0  0  0  0  0
   53.5960   80.8880   26.6330 C   0  0  0  0  0  0  0  0  0  0  0  0
   52.9570   81.5820   25.6110 C   0  0  0  0  0  0  0  0  0  0  0  0
   52.4700   82.8320   25.8880 O   0  0  0  0  0  0  0  0  0  0  0  0
   53.6198   81.4408   22.0259 H   0  0  0  0  0  0  0  0  0  0  0  0
   51.9483   80.9686   21.5679 H   0  0  0  0  0  0  0  0  0  0  0  0
   52.4242   82.7007   21.5679 H   0  0  0  0  0  0  0  0  0  0  0  0
   53.2005   79.3118   23.0878 H   0  0  0  0  0  0  0  0  0  0  0  0
   54.3451   78.0461   24.9042 H   0  0  0  0  0  0  0  0  0  0  0  0
   58.5050   79.0020   27.8590 H   0  0  0  0  0  0  0  0  0  0  0  0
   57.5410   81.1319   28.9845 H   0  0  0  0  0  0  0  0  0  0  0  0
   57.4047   81.2407   31.2258 H   0  0  0  0  0  0  0  0  0  0  0  0
   57.3023   79.4341   31.0853 H   0  0  0  0  0  0  0  0  0  0  0  0
   58.9081   80.1393   32.8275 H   0  0  0  0  0  0  0  0  0  0  0  0
   59.6981   79.2444   31.4642 H   0  0  0  0  0  0  0  0  0  0  0  0
   61.2585   79.5339   33.0727 H   0  0  0  0  0  0  0  0  0  0  0  0
   62.6321   80.4996   33.7631 H   0  0  0  0  0  0  0  0  0  0  0  0
   60.4108   79.0694   35.2835 H   0  0  0  0  0  0  0  0  0  0  0  0
   62.2132   78.7109   35.2495 H   0  0  0  0  0  0  0  0  0  0  0  0
   63.2838   80.6975   37.6848 H   0  0  0  0  0  0  0  0  0  0  0  0
   63.6779   79.8657   36.1423 H   0  0  0  0  0  0  0  0  0  0  0  0
   63.2823   81.6179   36.1423 H   0  0  0  0  0  0  0  0  0  0  0  0
   59.7690   81.2664   36.4328 H   0  0  0  0  0  0  0  0  0  0  0  0
   61.1850   82.2375   37.0899 H   0  0  0  0  0  0  0  0  0  0  0  0
   60.2080   83.1102   34.9417 H   0  0  0  0  0  0  0  0  0  0  0  0
   61.9809   82.7173   34.9193 H   0  0  0  0  0  0  0  0  0  0  0  0
   59.4095   82.7461   30.2278 H   0  0  0  0  0  0  0  0  0  0  0  0
   61.1327   82.2315   29.9980 H   0  0  0  0  0  0  0  0  0  0  0  0
   59.7234   81.3966   28.1743 H   0  0  0  0  0  0  0  0  0  0  0  0
   60.3655   80.0437   29.1834 H   0  0  0  0  0  0  0  0  0  0  0  0
   54.6124   76.4742   29.7628 H   0  0  0  0  0  0  0  0  0  0  0  0
   53.6907   81.3411   27.6309 H   0  0  0  0  0  0  0  0  0  0  0  0
   53.2040   83.2940   26.3390 H   0  0  0  0  0  0  0  0  0  0  0  0
  1  2  1  0
  2  3  1  0
  3  4  1  0
  4  5  2  0
  5  6  1  0
  6  7  1  0
  7  8  2  0
  8  9  1  0
  9 10  1  0
 10 11  1  0
 11 12  1  0
 12 13  1  0
 13 14  1  0
 14 15  1  0
 15 16  2  0
 15 17  1  0
 17 18  1  0
 18 19  1  0
 19 20  1  0
 20 21  1  0
 20 22  1  0
 22 23  1  0
 14 24  1  0
 24 25  1  0
  9 26  2  0
 26 27  1  0
 27 28  2  0
 28 29  1  0
 29 30  1  0
  6 31  2  0
 31 32  1  0
 32 33  1  0
 32  3  2  0
 28  7  1  0
 25 11  1  0
 23 17  1  0
  1 34  1  0
  1 35  1  0
  1 36  1  0
  4 37  1  0
  5 38  1  0
 10 39  1  0
 11 40  1  0
 12 41  1  0
 12 42  1  0
 13 43  1  0
 13 44  1  0
 18 45  1  0
 18 46  1  0
 19 47  1  0
 19 48  1  0
 21 49  1  0
 21 50  1  0
 21 51  1  0
 22 52  1  0
 22 53  1  0
 23 54  1  0
 23 55  1  0
 24 56  1  0
 24 57  1  0
 25 58  1  0
 25 59  1  0
 27 60  1  0
 31 61  1  0
 33 62  1  0
M  END
>  <meeko>  (1) 
{"is_sidechain": false}

>  <smiles>  (1) 
COc1ccc(-c2nc(NC3CCN(C(=O)N4CCN(C)CC4)CC3)ncc2SCl)cc1O

>  <vina_score>  (1) 
-8.845

>  <job_id>  (1) 
63ed71bf2793ed2b

$$$$
