
     RDKit          3D

 34 35  0  0  0  0  0  0  0  0999 V2000
   53.4980   83.4770   25.6200 O   0  0  0  0  0  0  0  0  0  0  0  0
   54.1500   82.4700   25.3610 C   0  0  0  0  0  0  0  0  0  0  0  0
   55.4180   82.1190   26.1580 C   0  0  0  0  0  0  0  0  0  0  0  0
   55.7850   80.6930   25.9880 N   0  0  0  0  0  0  0  0  0  0  0  0
   56.6420   80.2410   27.0900 C   0  0  0  0  0  0  0  0  0  0  0  0
   55.9480   79.1490   27.8670 C   0  0  0  0  0  0  0  0  0  0  0  0
   56.5610   78.5790   28.9920 C   0  0  0  0  0  0  0  0  0  0  0  0
   55.9350   77.5510   29.6990 C   0  0  0  0  0  0  0  0  0  0  0  0
   54.6890   77.0780   29.2860 C   0  0  0  0  0  0  0  0  0  0  0  0
   54.0780   77.6340   28.1640 C   0  0  0  0  0  0  0  0  0  0  0  0
   52.5450   77.0470   27.6480 Cl  0  0  0  0  0  0  0  0  0  0  0  0
   54.6990   78.6620   27.4540 C   0  0  0  0  0  0  0  0  0  0  0  0
   53.8590   81.5110   24.4080 N   0  0  0  0  0  0  0  0  0  0  0  0
   52.7900   81.4710   23.4990 C   0  0  0  0  0  0  0  0  0  0  0  0
   52.9370   81.6380   22.1190 C   0  0  0  0  0  0  0  0  0  0  0  0
   51.8230   81.5820   21.2730 C   0  0  0  0  0  0  0  0  0  0  0  0
   50.5550   81.3600   21.8020 C   0  0  0  0  0  0  0  0  0  0  0  0
   50.4120   81.1960   23.1740 C   0  0  0  0  0  0  0  0  0  0  0  0
   49.1950   80.9810   23.6890 F   0  0  0  0  0  0  0  0  0  0  0  0
   51.5140   81.2510   24.0230 C   0  0  0  0  0  0  0  0  0  0  0  0
   56.2487   82.7472   25.8041 H   0  0  0  0  0  0  0  0  0  0  0  0
   55.2186   82.3009   27.2244 H   0  0  0  0  0  0  0  0  0  0  0  0
   54.9290   80.1350   26.0120 H   0  0  0  0  0  0  0  0  0  0  0  0
   57.5871   79.8536   26.6816 H   0  0  0  0  0  0  0  0  0  0  0  0
   56.8460   81.0886   27.7608 H   0  0  0  0  0  0  0  0  0  0  0  0
   57.5447   78.9455   29.3206 H   0  0  0  0  0  0  0  0  0  0  0  0
   56.4241   77.1137   30.5819 H   0  0  0  0  0  0  0  0  0  0  0  0
   54.1917   76.2704   29.8432 H   0  0  0  0  0  0  0  0  0  0  0  0
   54.2081   79.0916   26.5683 H   0  0  0  0  0  0  0  0  0  0  0  0
   54.5670   80.7800   24.3510 H   0  0  0  0  0  0  0  0  0  0  0  0
   53.9362   81.8149   21.6943 H   0  0  0  0  0  0  0  0  0  0  0  0
   51.9501   81.7137   20.1883 H   0  0  0  0  0  0  0  0  0  0  0  0
   49.6765   81.3149   21.1415 H   0  0  0  0  0  0  0  0  0  0  0  0
   51.3798   81.1211   25.1070 H   0  0  0  0  0  0  0  0  0  0  0  0
  1  2  2  0
  2  3  1  0
  3  4  1  0
  4  5  1  0
  5  6  1  0
  6  7  2  0
  7  8  1  0
  8  9  2  0
  9 10  1  0
 10 11  1  0
 10 12  2  0
  2 13  1  0
 13 14  1  0
 14 15  2  0
 15 16  1  0
 16 17  2  0
 17 18  1  0
 18 19  1  0
 18 20  2  0
 12  6  1  0
 20 14  1  0
  3 21  1  0
  3 22  1  0
  4 23  1  0
  5 24  1  0
  5 25  1  0
  7 26  1  0
  8 27  1  0
  9 28  1  0
 12 29  1  0
 13 30  1  0
 15 31  1  0
 16 32  1  0
 17 33  1  0
 20 34  1  0
M  END
>  <meeko>  (1) 
{"is_sidechain": false}

>  <smiles>  (1) 
O=C(CNCc1cccc(Cl)c1)Nc1cccc(F)c1

>  <vina_score>  (1) 
-7.072

>  <job_id>  (1) 
641588195a6c0644

$$$$
