
     RDKit          3D

 41 44  0  0  0  0  0  0  0  0999 V2000
   61.5920   81.7320   30.0490 N   0  0  0  0  0  0  0  0  0  0  0  0
   60.2740   82.2920   30.5960 S   0  0  0  0  0  0  0  0  0  0  0  0
   59.9760   83.6730   30.9090 O   0  0  0  0  0  0  0  0  0  0  0  0
   60.1580   81.3890   31.9500 O   0  0  0  0  0  0  0  0  0  0  0  0
   59.2900   81.9440   32.9600 C   0  0  0  0  0  0  0  0  0  0  0  0
   58.8850   80.9820   34.0450 C   0  0  0  0  0  0  0  0  0  0  0  0
   57.8900   81.3960   33.0000 C   0  0  0  0  0  0  0  0  0  0  0  0
   58.9840   81.6820   29.5410 C   0  0  0  0  0  0  0  0  0  0  0  0
   58.9930   80.3440   29.1370 C   0  0  0  0  0  0  0  0  0  0  0  0
   57.9640   79.8660   28.3220 C   0  0  0  0  0  0  0  0  0  0  0  0
   56.9300   80.7220   27.9170 C   0  0  0  0  0  0  0  0  0  0  0  0
   55.8440   80.2150   27.0500 C   0  0  0  0  0  0  0  0  0  0  0  0
   55.6160   80.8260   25.8660 C   0  0  0  0  0  0  0  0  0  0  0  0
   56.3100   81.8990   25.3690 O   0  0  0  0  0  0  0  0  0  0  0  0
   54.6330   80.4210   25.0160 N   0  0  0  0  0  0  0  0  0  0  0  0
   53.7730   79.3780   25.2370 C   0  0  0  0  0  0  0  0  0  0  0  0
   52.9060   79.0630   24.4310 O   0  0  0  0  0  0  0  0  0  0  0  0
   53.9550   78.6500   26.5150 C   0  0  0  0  0  0  0  0  0  0  0  0
   53.1180   77.5700   26.8200 C   0  0  0  0  0  0  0  0  0  0  0  0
   53.2860   76.8820   28.0210 C   0  0  0  0  0  0  0  0  0  0  0  0
   54.2850   77.2750   28.9090 C   0  0  0  0  0  0  0  0  0  0  0  0
   55.1190   78.3540   28.6020 C   0  0  0  0  0  0  0  0  0  0  0  0
   54.9670   79.0620   27.3990 C   0  0  0  0  0  0  0  0  0  0  0  0
   56.9310   82.0620   28.3310 C   0  0  0  0  0  0  0  0  0  0  0  0
   57.9580   82.5440   29.1460 C   0  0  0  0  0  0  0  0  0  0  0  0
   61.8120   82.1510   29.1470 H   0  0  0  0  0  0  0  0  0  0  0  0
   59.7252   82.9537   32.9257 H   0  0  0  0  0  0  0  0  0  0  0  0
   59.2845   79.9571   34.0485 H   0  0  0  0  0  0  0  0  0  0  0  0
   58.9088   80.9952   35.1447 H   0  0  0  0  0  0  0  0  0  0  0  0
   57.5604   80.6741   32.2383 H   0  0  0  0  0  0  0  0  0  0  0  0
   56.8828   81.8379   33.0178 H   0  0  0  0  0  0  0  0  0  0  0  0
   59.8034   79.6731   29.4581 H   0  0  0  0  0  0  0  0  0  0  0  0
   57.9650   78.8151   27.9971 H   0  0  0  0  0  0  0  0  0  0  0  0
   56.7150   81.6460   24.5230 H   0  0  0  0  0  0  0  0  0  0  0  0
   54.5220   80.9270   24.1480 H   0  0  0  0  0  0  0  0  0  0  0  0
   52.3307   77.2654   26.1147 H   0  0  0  0  0  0  0  0  0  0  0  0
   52.6322   76.0321   28.2665 H   0  0  0  0  0  0  0  0  0  0  0  0
   54.4182   76.7332   29.8570 H   0  0  0  0  0  0  0  0  0  0  0  0
   55.9045   78.6523   29.3120 H   0  0  0  0  0  0  0  0  0  0  0  0
   56.1211   82.7351   28.0131 H   0  0  0  0  0  0  0  0  0  0  0  0
   57.9589   83.5939   29.4742 H   0  0  0  0  0  0  0  0  0  0  0  0
  1  2  2  0
  2  3  2  0
  2  4  1  0
  4  5  1  0
  5  6  1  0
  6  7  1  0
  2  8  1  0
  8  9  1  0
  9 10  2  0
 10 11  1  0
 11 12  1  0
 12 13  2  0
 13 14  1  0
 13 15  1  0
 15 16  1  0
 16 17  2  0
 16 18  1  0
 18 19  2  0
 19 20  1  0
 20 21  2  0
 21 22  1  0
 22 23  2  0
 11 24  2  0
 24 25  1  0
  7  5  1  0
 25  8  2  0
 23 12  1  0
 23 18  1  0
  1 26  1  0
  5 27  1  0
  6 28  1  0
  6 29  1  0
  7 30  1  0
  7 31  1  0
  9 32  1  0
 10 33  1  0
 14 34  1  0
 15 35  1  0
 19 36  1  0
 20 37  1  0
 21 38  1  0
 22 39  1  0
 24 40  1  0
 25 41  1  0
M  END
>  <meeko>  (1) 
{"is_sidechain": false}

>  <smiles>  (1) 
N=S(=O)(OC1CC1)c1ccc(-c2c(O)[nH]c(=O)c3ccccc23)cc1

>  <vina_score>  (1) 
-8.223

>  <job_id>  (1) 
64221089a7059a7e

$$$$
