
     RDKit          3D

 46 49  0  0  0  0  0  0  0  0999 V2000
   51.0080   82.2400   21.9250 N   0  0  0  0  0  0  0  0  0  0  0  0
   52.2660   81.7570   22.4940 C   0  0  2  0  0  0  0  0  0  0  0  0
   52.1600   80.2490   22.7730 C   0  0  0  0  0  0  0  0  0  0  0  0
   53.1440   79.8180   23.8540 C   0  0  0  0  0  0  0  0  0  0  0  0
   52.8330   80.4980   25.2000 C   0  0  1  0  0  0  0  0  0  0  0  0
   54.0670   80.6350   25.9690 N   0  0  0  0  0  0  0  0  0  0  0  0
   54.5440   79.6520   26.8100 C   0  0  0  0  0  0  0  0  0  0  0  0
   55.9300   79.8230   27.3660 C   0  0  0  0  0  0  0  0  0  0  0  0
   56.4070   78.8880   28.2050 C   0  0  0  0  0  0  0  0  0  0  0  0
   57.6700   78.8700   28.7920 N   0  0  0  0  0  0  0  0  0  0  0  0
   58.3030   79.8570   29.5730 C   0  0  0  0  0  0  0  0  0  0  0  0
   59.3060   80.7090   29.0900 C   0  0  0  0  0  0  0  0  0  0  0  0
   59.9200   81.6440   29.9290 C   0  0  0  0  0  0  0  0  0  0  0  0
   59.5420   81.7280   31.2640 C   0  0  0  0  0  0  0  0  0  0  0  0
   60.1450   82.6310   32.0500 F   0  0  0  0  0  0  0  0  0  0  0  0
   58.5530   80.8900   31.7660 C   0  0  0  0  0  0  0  0  0  0  0  0
   58.0790   80.9820   33.4190 Cl  0  0  0  0  0  0  0  0  0  0  0  0
   57.9390   79.9590   30.9260 C   0  0  0  0  0  0  0  0  0  0  0  0
   55.5830   77.7720   28.4740 N   0  0  0  0  0  0  0  0  0  0  0  0
   55.9000   76.6960   29.2620 N   0  0  0  0  0  0  0  0  0  0  0  0
   54.8100   75.9270   29.2030 C   0  0  0  0  0  0  0  0  0  0  0  0
   53.8020   76.4720   28.3950 C   0  0  0  0  0  0  0  0  0  0  0  0
   52.2900   75.7720   28.0870 Cl  0  0  0  0  0  0  0  0  0  0  0  0
   54.3090   77.6620   27.9240 C   0  0  0  0  0  0  0  0  0  0  0  0
   53.7930   78.6190   27.0960 N   0  0  0  0  0  0  0  0  0  0  0  0
   52.1850   81.8860   25.0320 C   0  0  0  0  0  0  0  0  0  0  0  0
   52.6400   82.5700   23.7450 C   0  0  0  0  0  0  0  0  0  0  0  0
   50.3040   81.5030   21.9440 H   0  0  0  0  0  0  0  0  0  0  0  0
   51.1410   82.4760   20.9420 H   0  0  0  0  0  0  0  0  0  0  0  0
   53.0832   81.9026   21.7722 H   0  0  0  0  0  0  0  0  0  0  0  0
   51.1375   80.0166   23.1053 H   0  0  0  0  0  0  0  0  0  0  0  0
   52.3998   79.7058   21.8471 H   0  0  0  0  0  0  0  0  0  0  0  0
   53.0810   78.7272   23.9811 H   0  0  0  0  0  0  0  0  0  0  0  0
   54.1553   80.1166   23.5407 H   0  0  0  0  0  0  0  0  0  0  0  0
   52.1093   79.8593   25.7275 H   0  0  0  0  0  0  0  0  0  0  0  0
   54.7430   81.2820   25.5810 H   0  0  0  0  0  0  0  0  0  0  0  0
   56.5412   80.6955   27.0917 H   0  0  0  0  0  0  0  0  0  0  0  0
   57.9430   77.9190   29.0620 H   0  0  0  0  0  0  0  0  0  0  0  0
   59.6143   80.6410   28.0363 H   0  0  0  0  0  0  0  0  0  0  0  0
   60.7000   82.3113   29.5337 H   0  0  0  0  0  0  0  0  0  0  0  0
   57.1593   79.2961   31.3293 H   0  0  0  0  0  0  0  0  0  0  0  0
   54.7131   74.9676   29.7322 H   0  0  0  0  0  0  0  0  0  0  0  0
   51.0917   81.7681   25.0056 H   0  0  0  0  0  0  0  0  0  0  0  0
   52.4936   82.5134   25.8812 H   0  0  0  0  0  0  0  0  0  0  0  0
   52.1626   83.5589   23.6811 H   0  0  0  0  0  0  0  0  0  0  0  0
   53.7361   82.6571   23.7771 H   0  0  0  0  0  0  0  0  0  0  0  0
  1  2  1  0
  2  3  1  0
  3  4  1  0
  4  5  1  0
  5  6  1  0
  6  7  1  0
  7  8  1  0
  8  9  2  0
  9 10  1  0
 10 11  1  0
 11 12  1  0
 12 13  2  0
 13 14  1  0
 14 15  1  0
 14 16  2  0
 16 17  1  0
 16 18  1  0
  9 19  1  0
 19 20  1  0
 20 21  2  0
 21 22  1  0
 22 23  1  0
 22 24  2  0
 24 25  1  0
  5 26  1  0
 26 27  1  0
 27  2  1  0
 25  7  2  0
 18 11  2  0
 24 19  1  0
  1 28  1  0
  1 29  1  0
  2 30  1  1
  3 31  1  0
  3 32  1  0
  4 33  1  0
  4 34  1  0
  5 35  1  6
  6 36  1  0
  8 37  1  0
 10 38  1  0
 12 39  1  0
 13 40  1  0
 18 41  1  0
 21 42  1  0
 26 43  1  0
 26 44  1  0
 27 45  1  0
 27 46  1  0
M  END
>  <meeko>  (1) 
{"is_sidechain": false}

>  <smiles>  (1) 
N[C@H]1CC[C@H](Nc2cc(Nc3ccc(F)c(Cl)c3)n3ncc(Cl)c3n2)CC1

>  <vina_score>  (1) 
-9.536

>  <job_id>  (1) 
6443db55cdf30f4f

$$$$
