
     RDKit          3D

 57 61  0  0  0  0  0  0  0  0999 V2000
   62.8130   84.0000   34.4690 C   0  0  0  0  0  0  0  0  0  0  0  0
   61.4610   83.7080   34.9380 N   0  0  0  0  0  0  0  0  0  0  0  0
   60.4350   84.3610   34.0950 C   0  0  0  0  0  0  0  0  0  0  0  0
   60.2500   83.7530   32.6840 C   0  0  0  0  0  0  0  0  0  0  0  0
   60.0040   82.3000   32.7620 N   0  0  0  0  0  0  0  0  0  0  0  0
   59.6200   81.6230   31.5930 C   0  0  0  0  0  0  0  0  0  0  0  0
   60.1650   82.0050   30.3590 C   0  0  0  0  0  0  0  0  0  0  0  0
   59.8140   81.3580   29.1750 C   0  0  0  0  0  0  0  0  0  0  0  0
   58.9110   80.2960   29.1970 C   0  0  0  0  0  0  0  0  0  0  0  0
   58.3580   79.8560   30.3980 C   0  0  0  0  0  0  0  0  0  0  0  0
   57.4380   78.8030   30.4950 N   0  0  0  0  0  0  0  0  0  0  0  0
   56.3920   78.3530   29.6950 C   0  0  0  0  0  0  0  0  0  0  0  0
   55.8040   77.1620   29.8940 N   0  0  0  0  0  0  0  0  0  0  0  0
   54.7980   76.8050   29.0730 C   0  0  0  0  0  0  0  0  0  0  0  0
   54.3400   77.6030   28.0590 C   0  0  0  0  0  0  0  0  0  0  0  0
   55.0220   78.8010   27.9270 C   0  0  0  0  0  0  0  0  0  0  0  0
   56.0320   79.2000   28.7160 N   0  0  0  0  0  0  0  0  0  0  0  0
   54.5860   79.6980   26.8740 C   0  0  0  0  0  0  0  0  0  0  0  0
   53.4300   79.5040   26.1430 C   0  0  0  0  0  0  0  0  0  0  0  0
   53.3680   80.5830   25.2280 C   0  0  0  0  0  0  0  0  0  0  0  0
   52.3230   80.8610   24.2320 C   0  0  0  0  0  0  0  0  0  0  0  0
   52.7890   80.9840   22.9540 N   0  0  0  0  0  0  0  0  0  0  0  0
   51.1310   80.9820   24.4970 O   0  0  0  0  0  0  0  0  0  0  0  0
   54.4380   81.3960   25.3780 N   0  0  0  0  0  0  0  0  0  0  0  0
   55.1530   80.8370   26.3840 N   0  0  0  0  0  0  0  0  0  0  0  0
   56.3830   81.4630   26.8050 C   0  0  0  0  0  0  0  0  0  0  0  0
   52.5110   78.3620   26.4140 C   0  0  0  0  0  0  0  0  0  0  0  0
   53.2610   77.1850   27.0890 C   0  0  0  0  0  0  0  0  0  0  0  0
   58.7270   80.5350   31.5810 C   0  0  0  0  0  0  0  0  0  0  0  0
   61.0130   81.5800   33.5760 C   0  0  0  0  0  0  0  0  0  0  0  0
   61.1940   82.2520   34.9590 C   0  0  0  0  0  0  0  0  0  0  0  0
   63.4779   84.1436   35.3334 H   0  0  0  0  0  0  0  0  0  0  0  0
   63.1793   83.1603   33.8602 H   0  0  0  0  0  0  0  0  0  0  0  0
   62.8001   84.9161   33.8602 H   0  0  0  0  0  0  0  0  0  0  0  0
   59.4714   84.2959   34.6216 H   0  0  0  0  0  0  0  0  0  0  0  0
   60.7838   85.3922   33.9373 H   0  0  0  0  0  0  0  0  0  0  0  0
   59.3927   84.2371   32.1933 H   0  0  0  0  0  0  0  0  0  0  0  0
   61.1707   83.9219   32.1063 H   0  0  0  0  0  0  0  0  0  0  0  0
   60.8865   82.8346   30.3242 H   0  0  0  0  0  0  0  0  0  0  0  0
   60.2509   81.6865   28.2204 H   0  0  0  0  0  0  0  0  0  0  0  0
   58.6319   79.7998   28.2557 H   0  0  0  0  0  0  0  0  0  0  0  0
   57.5660   78.1600   31.2590 H   0  0  0  0  0  0  0  0  0  0  0  0
   54.3213   75.8253   29.2243 H   0  0  0  0  0  0  0  0  0  0  0  0
   52.1550   81.2110   22.2040 H   0  0  0  0  0  0  0  0  0  0  0  0
   53.7890   80.9090   22.7980 H   0  0  0  0  0  0  0  0  0  0  0  0
   56.4259   81.4848   27.9039 H   0  0  0  0  0  0  0  0  0  0  0  0
   57.2378   80.8903   26.4160 H   0  0  0  0  0  0  0  0  0  0  0  0
   56.4230   82.4911   26.4160 H   0  0  0  0  0  0  0  0  0  0  0  0
   51.7037   78.7016   27.0796 H   0  0  0  0  0  0  0  0  0  0  0  0
   52.1020   78.0097   25.4555 H   0  0  0  0  0  0  0  0  0  0  0  0
   52.5249   76.5769   27.6353 H   0  0  0  0  0  0  0  0  0  0  0  0
   53.7635   76.6310   26.2824 H   0  0  0  0  0  0  0  0  0  0  0  0
   58.2969   80.1981   32.5357 H   0  0  0  0  0  0  0  0  0  0  0  0
   60.6824   80.5410   33.7217 H   0  0  0  0  0  0  0  0  0  0  0  0
   61.9758   81.6078   33.0447 H   0  0  0  0  0  0  0  0  0  0  0  0
   60.2735   82.0860   35.5379 H   0  0  0  0  0  0  0  0  0  0  0  0
   62.0896   81.7904   35.4004 H   0  0  0  0  0  0  0  0  0  0  0  0
  1  2  1  0
  2  3  1  0
  3  4  1  0
  4  5  1  0
  5  6  1  0
  6  7  2  0
  7  8  1  0
  8  9  2  0
  9 10  1  0
 10 11  1  0
 11 12  1  0
 12 13  2  0
 13 14  1  0
 14 15  2  0
 15 16  1  0
 16 17  2  0
 16 18  1  0
 18 19  2  0
 19 20  1  0
 20 21  1  0
 21 22  1  0
 21 23  2  0
 20 24  2  0
 24 25  1  0
 25 26  1  0
 19 27  1  0
 27 28  1  0
 10 29  2  0
  5 30  1  0
 30 31  1  0
 31  2  1  0
 29  6  1  0
 17 12  1  0
 25 18  1  0
 28 15  1  0
  1 32  1  0
  1 33  1  0
  1 34  1  0
  3 35  1  0
  3 36  1  0
  4 37  1  0
  4 38  1  0
  7 39  1  0
  8 40  1  0
  9 41  1  0
 11 42  1  0
 14 43  1  0
 22 44  1  0
 22 45  1  0
 26 46  1  0
 26 47  1  0
 26 48  1  0
 27 49  1  0
 27 50  1  0
 28 51  1  0
 28 52  1  0
 29 53  1  0
 30 54  1  0
 30 55  1  0
 31 56  1  0
 31 57  1  0
M  END
>  <meeko>  (1) 
{"is_sidechain": false}

>  <smiles>  (1) 
CN1CCN(c2cccc(Nc3ncc4c(n3)-c3c(c(C(N)=O)nn3C)CC4)c2)CC1

>  <vina_score>  (1) 
-9.073

>  <job_id>  (1) 
657076bc7aca22f8

$$$$
