
     RDKit          3D

 41 42  0  0  0  0  0  0  0  0999 V2000
   60.6110   82.6920   32.7880 C   0  0  0  0  0  0  0  0  0  0  0  0
   60.5300   83.0870   31.3040 C   0  0  0  0  0  0  0  0  0  0  0  0
   61.6390   84.1210   31.0190 C   0  0  0  0  0  0  0  0  0  0  0  0
   59.1710   83.7540   31.0310 C   0  0  0  0  0  0  0  0  0  0  0  0
   60.7670   81.8660   30.3720 C   0  0  0  0  0  0  0  0  0  0  0  0
   59.5670   81.0140   30.0490 C   0  0  0  0  0  0  0  0  0  0  0  0
   58.9190   80.2610   31.0260 C   0  0  0  0  0  0  0  0  0  0  0  0
   57.8090   79.4870   30.6870 C   0  0  0  0  0  0  0  0  0  0  0  0
   57.3540   79.4830   29.3680 C   0  0  0  0  0  0  0  0  0  0  0  0
   56.1850   78.6930   28.9210 C   0  0  0  0  0  0  0  0  0  0  0  0
   55.8710   77.4660   29.5430 C   0  0  0  0  0  0  0  0  0  0  0  0
   54.7720   76.6990   29.1430 C   0  0  0  0  0  0  0  0  0  0  0  0
   53.9600   77.1550   28.1060 C   0  0  0  0  0  0  0  0  0  0  0  0
   52.5880   76.1770   27.5730 S   0  0  0  0  0  0  0  0  0  0  0  0
   53.0680   74.6320   28.0220 N   0  0  0  0  0  0  0  0  0  0  0  0
   51.4360   76.4840   28.3890 O   0  0  0  0  0  0  0  0  0  0  0  0
   52.5350   76.1720   26.1300 O   0  0  0  0  0  0  0  0  0  0  0  0
   54.2530   78.3530   27.4530 C   0  0  0  0  0  0  0  0  0  0  0  0
   55.3570   79.1110   27.8610 C   0  0  0  0  0  0  0  0  0  0  0  0
   57.9770   80.2070   28.4060 N   0  0  0  0  0  0  0  0  0  0  0  0
   59.0500   80.9500   28.7620 C   0  0  0  0  0  0  0  0  0  0  0  0
   60.4293   83.5782   33.4138 H   0  0  0  0  0  0  0  0  0  0  0  0
   59.8510   81.9272   33.0059 H   0  0  0  0  0  0  0  0  0  0  0  0
   61.6107   82.2880   33.0059 H   0  0  0  0  0  0  0  0  0  0  0  0
   62.0427   84.4974   31.9705 H   0  0  0  0  0  0  0  0  0  0  0  0
   62.4450   83.6445   30.4416 H   0  0  0  0  0  0  0  0  0  0  0  0
   61.2200   84.9583   30.4416 H   0  0  0  0  0  0  0  0  0  0  0  0
   58.6818   83.9941   31.9866 H   0  0  0  0  0  0  0  0  0  0  0  0
   59.3254   84.6787   30.4556 H   0  0  0  0  0  0  0  0  0  0  0  0
   58.5340   83.0662   30.4556 H   0  0  0  0  0  0  0  0  0  0  0  0
   61.1705   82.2461   29.4219 H   0  0  0  0  0  0  0  0  0  0  0  0
   61.4466   81.2056   30.9306 H   0  0  0  0  0  0  0  0  0  0  0  0
   59.2825   80.2768   32.0641 H   0  0  0  0  0  0  0  0  0  0  0  0
   57.2972   78.8854   31.4525 H   0  0  0  0  0  0  0  0  0  0  0  0
   56.5071   77.1033   30.3638 H   0  0  0  0  0  0  0  0  0  0  0  0
   54.5504   75.7443   29.6424 H   0  0  0  0  0  0  0  0  0  0  0  0
   52.4700   73.9400   27.5710 H   0  0  0  0  0  0  0  0  0  0  0  0
   54.0620   74.5100   27.8260 H   0  0  0  0  0  0  0  0  0  0  0  0
   53.6203   78.6996   26.6226 H   0  0  0  0  0  0  0  0  0  0  0  0
   55.5829   80.0542   27.3421 H   0  0  0  0  0  0  0  0  0  0  0  0
   59.5460   81.5431   27.9795 H   0  0  0  0  0  0  0  0  0  0  0  0
  1  2  1  0
  2  3  1  0
  2  4  1  0
  2  5  1  0
  5  6  1  0
  6  7  2  0
  7  8  1  0
  8  9  2  0
  9 10  1  0
 10 11  1  0
 11 12  2  0
 12 13  1  0
 13 14  1  0
 14 15  1  0
 14 16  2  0
 14 17  2  0
 13 18  2  0
 18 19  1  0
  9 20  1  0
 20 21  2  0
 21  6  1  0
 19 10  2  0
  1 22  1  0
  1 23  1  0
  1 24  1  0
  3 25  1  0
  3 26  1  0
  3 27  1  0
  4 28  1  0
  4 29  1  0
  4 30  1  0
  5 31  1  0
  5 32  1  0
  7 33  1  0
  8 34  1  0
 11 35  1  0
 12 36  1  0
 15 37  1  0
 15 38  1  0
 18 39  1  0
 19 40  1  0
 21 41  1  0
M  END
>  <meeko>  (1) 
{"is_sidechain": false}

>  <smiles>  (1) 
CC(C)(C)Cc1ccc(-c2ccc(S(N)(=O)=O)cc2)nc1

>  <vina_score>  (1) 
-7.154

>  <job_id>  (1) 
65dd26aea258c96b

$$$$
