
     RDKit          3D

 66 70  0  0  0  0  0  0  0  0999 V2000
   59.1960   82.1580   29.8600 C   0  0  0  0  0  0  0  0  0  0  0  0
   58.5700   80.9930   29.6280 C   0  0  0  0  0  0  0  0  0  0  0  0
   58.0630   80.5230   28.2920 C   0  0  0  0  0  0  0  0  0  0  0  0
   56.7700   81.0290   27.9810 O   0  0  0  0  0  0  0  0  0  0  0  0
   56.5370   81.1080   26.5740 C   0  0  0  0  0  0  0  0  0  0  0  0
   55.5060   82.1790   26.3100 C   0  0  0  0  0  0  0  0  0  0  0  0
   55.9030   83.5360   26.3400 C   0  0  0  0  0  0  0  0  0  0  0  0
   54.9930   84.5680   26.1130 C   0  0  0  0  0  0  0  0  0  0  0  0
   53.6650   84.2080   25.8320 C   0  0  0  0  0  0  0  0  0  0  0  0
   53.2580   82.8710   25.7790 C   0  0  0  0  0  0  0  0  0  0  0  0
   54.1730   81.8470   26.0140 C   0  0  0  0  0  0  0  0  0  0  0  0
   53.8680   80.5120   25.9930 O   0  0  0  0  0  0  0  0  0  0  0  0
   53.3100   79.9390   27.1780 C   0  0  0  0  0  0  0  0  0  0  0  0
   53.1390   78.4300   26.9400 C   0  0  0  0  0  0  0  0  0  0  0  0
   54.1740   77.6140   27.5860 N   0  0  0  0  0  0  0  0  0  0  0  0
   53.6350   76.4730   28.3310 C   0  0  0  0  0  0  0  0  0  0  0  0
   54.7880   76.0640   29.2370 C   0  0  0  0  0  0  0  0  0  0  0  0
   55.6680   77.3030   29.3520 C   0  0  0  0  0  0  0  0  0  0  0  0
   54.9290   78.3830   28.5780 C   0  0  0  0  0  0  0  0  0  0  0  0
   55.3080   85.9260   26.1460 N   0  0  0  0  0  0  0  0  0  0  0  0
   55.5790   86.8650   27.1340 C   0  0  0  0  0  0  0  0  0  0  0  0
   54.7520   87.9250   27.0990 N   0  0  0  0  0  0  0  0  0  0  0  0
   54.9380   88.8880   28.0110 C   0  0  0  0  0  0  0  0  0  0  0  0
   55.9290   88.8450   28.9540 C   0  0  0  0  0  0  0  0  0  0  0  0
   56.7510   87.7330   28.9270 C   0  0  0  0  0  0  0  0  0  0  0  0
   56.5690   86.7330   28.0310 N   0  0  0  0  0  0  0  0  0  0  0  0
   57.8620   87.5700   29.8820 C   0  0  0  0  0  0  0  0  0  0  0  0
   58.6370   88.6510   30.3090 C   0  0  0  0  0  0  0  0  0  0  0  0
   59.6380   88.5890   31.2210 N   0  0  0  0  0  0  0  0  0  0  0  0
   59.9080   87.3720   31.7350 C   0  0  0  0  0  0  0  0  0  0  0  0
   59.2370   86.2120   31.3730 C   0  0  0  0  0  0  0  0  0  0  0  0
   58.1990   86.3270   30.4360 C   0  0  0  0  0  0  0  0  0  0  0  0
   59.6020   84.8930   31.9950 C   0  0  0  0  0  0  0  0  0  0  0  0
   60.1010   83.9820   31.0210 O   0  0  0  0  0  0  0  0  0  0  0  0
   59.6250   82.6500   31.2030 C   0  0  0  0  0  0  0  0  0  0  0  0
   59.4095   82.8002   28.9929 H   0  0  0  0  0  0  0  0  0  0  0  0
   58.4147   80.3253   30.4883 H   0  0  0  0  0  0  0  0  0  0  0  0
   58.7661   80.8542   27.5135 H   0  0  0  0  0  0  0  0  0  0  0  0
   57.9867   79.4265   28.3351 H   0  0  0  0  0  0  0  0  0  0  0  0
   57.4745   81.3623   26.0579 H   0  0  0  0  0  0  0  0  0  0  0  0
   56.1731   80.1393   26.2009 H   0  0  0  0  0  0  0  0  0  0  0  0
   56.9546   83.7833   26.5473 H   0  0  0  0  0  0  0  0  0  0  0  0
   52.9240   84.9999   25.6484 H   0  0  0  0  0  0  0  0  0  0  0  0
   52.2101   82.6267   25.5506 H   0  0  0  0  0  0  0  0  0  0  0  0
   53.9862   80.1086   28.0289 H   0  0  0  0  0  0  0  0  0  0  0  0
   52.3390   80.4026   27.4063 H   0  0  0  0  0  0  0  0  0  0  0  0
   52.1585   78.1244   27.3340 H   0  0  0  0  0  0  0  0  0  0  0  0
   53.2243   78.2619   25.8563 H   0  0  0  0  0  0  0  0  0  0  0  0
   52.7561   76.7693   28.9224 H   0  0  0  0  0  0  0  0  0  0  0  0
   53.2934   75.6570   27.6772 H   0  0  0  0  0  0  0  0  0  0  0  0
   54.4128   75.7646   30.2268 H   0  0  0  0  0  0  0  0  0  0  0  0
   55.3418   75.2037   28.8330 H   0  0  0  0  0  0  0  0  0  0  0  0
   55.7880   77.5957   30.4055 H   0  0  0  0  0  0  0  0  0  0  0  0
   56.6797   77.1297   28.9564 H   0  0  0  0  0  0  0  0  0  0  0  0
   54.2546   78.9506   29.2360 H   0  0  0  0  0  0  0  0  0  0  0  0
   55.5983   79.1323   28.1301 H   0  0  0  0  0  0  0  0  0  0  0  0
   55.3730   86.3940   25.2540 H   0  0  0  0  0  0  0  0  0  0  0  0
   54.2616   89.7554   28.0017 H   0  0  0  0  0  0  0  0  0  0  0  0
   56.0641   89.6496   29.6919 H   0  0  0  0  0  0  0  0  0  0  0  0
   58.4166   89.6345   29.8684 H   0  0  0  0  0  0  0  0  0  0  0  0
   60.7078   87.2937   32.4861 H   0  0  0  0  0  0  0  0  0  0  0  0
   57.6416   85.4289   30.1317 H   0  0  0  0  0  0  0  0  0  0  0  0
   60.3752   85.0591   32.7596 H   0  0  0  0  0  0  0  0  0  0  0  0
   58.6968   84.4589   32.4447 H   0  0  0  0  0  0  0  0  0  0  0  0
   60.4277   82.0121   31.6013 H   0  0  0  0  0  0  0  0  0  0  0  0
   58.7898   82.6236   31.9184 H   0  0  0  0  0  0  0  0  0  0  0  0
  1  2  2  0
  2  3  1  0
  3  4  1  0
  4  5  1  0
  5  6  1  0
  6  7  1  0
  7  8  2  0
  8  9  1  0
  9 10  2  0
 10 11  1  0
 11 12  1  0
 12 13  1  0
 13 14  1  0
 14 15  1  0
 15 16  1  0
 16 17  1  0
 17 18  1  0
 18 19  1  0
  8 20  1  0
 20 21  1  0
 21 22  2  0
 22 23  1  0
 23 24  2  0
 24 25  1  0
 25 26  2  0
 25 27  1  0
 27 28  2  0
 28 29  1  0
 29 30  2  0
 30 31  1  0
 31 32  2  0
 31 33  1  0
 33 34  1  0
 34 35  1  0
 35  1  1  0
 11  6  2  0
 19 15  1  0
 26 21  1  0
 32 27  1  0
  1 36  1  0
  2 37  1  0
  3 38  1  0
  3 39  1  0
  5 40  1  0
  5 41  1  0
  7 42  1  0
  9 43  1  0
 10 44  1  0
 13 45  1  0
 13 46  1  0
 14 47  1  0
 14 48  1  0
 16 49  1  0
 16 50  1  0
 17 51  1  0
 17 52  1  0
 18 53  1  0
 18 54  1  0
 19 55  1  0
 19 56  1  0
 20 57  1  0
 23 58  1  0
 24 59  1  0
 28 60  1  0
 30 61  1  0
 32 62  1  0
 33 63  1  0
 33 64  1  0
 35 65  1  0
 35 66  1  0
M  END
>  <meeko>  (1) 
{"is_sidechain": false}

>  <smiles>  (1) 
C1=C/COCc2cc(ccc2OCCN2CCCC2)Nc2nccc(n2)-c2cncc(c2)COC/1

>  <vina_score>  (1) 
-5.274

>  <job_id>  (1) 
662c4739301f6c9b

$$$$
