
     RDKit          3D

 54 57  0  0  0  0  0  0  0  0999 V2000
   63.4240   82.6950   37.7960 C   0  0  0  0  0  0  0  0  0  0  0  0
   62.5520   82.3710   36.7050 N   0  0  0  0  0  0  0  0  0  0  0  0
   62.6760   82.9250   35.4480 C   0  0  0  0  0  0  0  0  0  0  0  0
   63.5980   83.6700   35.1370 O   0  0  0  0  0  0  0  0  0  0  0  0
   61.5940   82.5090   34.5300 C   0  0  0  0  0  0  0  0  0  0  0  0
   60.4510   82.0020   35.0470 N   0  0  0  0  0  0  0  0  0  0  0  0
   59.7310   81.6110   33.9770 N   0  0  0  0  0  0  0  0  0  0  0  0
   58.4480   80.9820   34.1920 C   0  0  0  0  0  0  0  0  0  0  0  0
   60.3460   81.8800   32.7910 C   0  0  0  0  0  0  0  0  0  0  0  0
   61.5340   82.5300   33.1010 C   0  0  0  0  0  0  0  0  0  0  0  0
   62.4900   82.9950   32.0110 C   0  0  0  0  0  0  0  0  0  0  0  0
   63.0750   84.3940   32.2830 C   0  0  0  0  0  0  0  0  0  0  0  0
   63.6380   81.9790   31.8560 C   0  0  0  0  0  0  0  0  0  0  0  0
   61.7230   83.1080   30.6330 C   0  0  0  0  0  0  0  0  0  0  0  0
   60.6320   82.0980   30.3970 C   0  0  0  0  0  0  0  0  0  0  0  0
   60.1960   81.7320   29.1450 C   0  0  0  0  0  0  0  0  0  0  0  0
   59.1730   80.8830   28.9380 N   0  0  0  0  0  0  0  0  0  0  0  0
   58.5620   80.4000   30.0350 C   0  0  0  0  0  0  0  0  0  0  0  0
   57.4500   79.4770   29.7950 C   0  0  0  0  0  0  0  0  0  0  0  0
   56.6850   79.4730   28.6900 C   0  0  0  0  0  0  0  0  0  0  0  0
   55.5670   78.5470   28.4690 C   0  0  0  0  0  0  0  0  0  0  0  0
   54.5880   78.8810   27.5260 C   0  0  0  0  0  0  0  0  0  0  0  0
   53.5220   78.0150   27.2660 C   0  0  0  0  0  0  0  0  0  0  0  0
   53.4160   76.7910   27.9420 C   0  0  0  0  0  0  0  0  0  0  0  0
   52.2790   75.8450   27.6450 C   0  0  0  0  0  0  0  0  0  0  0  0
   52.6020   74.5490   27.9090 F   0  0  0  0  0  0  0  0  0  0  0  0
   51.8850   75.8730   26.3410 F   0  0  0  0  0  0  0  0  0  0  0  0
   51.1590   76.1070   28.3760 F   0  0  0  0  0  0  0  0  0  0  0  0
   54.4100   76.4450   28.8680 C   0  0  0  0  0  0  0  0  0  0  0  0
   55.4740   77.3150   29.1270 C   0  0  0  0  0  0  0  0  0  0  0  0
   58.8880   80.7010   31.3040 N   0  0  0  0  0  0  0  0  0  0  0  0
   59.9160   81.5510   31.4460 C   0  0  0  0  0  0  0  0  0  0  0  0
   62.9072   82.5030   38.7479 H   0  0  0  0  0  0  0  0  0  0  0  0
   64.3297   82.0734   37.7386 H   0  0  0  0  0  0  0  0  0  0  0  0
   63.7041   83.7572   37.7386 H   0  0  0  0  0  0  0  0  0  0  0  0
   61.7160   81.8060   36.8440 H   0  0  0  0  0  0  0  0  0  0  0  0
   58.2610   80.8903   35.2721 H   0  0  0  0  0  0  0  0  0  0  0  0
   57.6578   81.5949   33.7338 H   0  0  0  0  0  0  0  0  0  0  0  0
   58.4485   79.9820   33.7338 H   0  0  0  0  0  0  0  0  0  0  0  0
   63.1436   84.5580   33.3685 H   0  0  0  0  0  0  0  0  0  0  0  0
   64.0782   84.4649   31.8373 H   0  0  0  0  0  0  0  0  0  0  0  0
   62.4209   85.1579   31.8373 H   0  0  0  0  0  0  0  0  0  0  0  0
   63.9893   81.6681   32.8509 H   0  0  0  0  0  0  0  0  0  0  0  0
   63.2769   81.0992   31.3032 H   0  0  0  0  0  0  0  0  0  0  0  0
   64.4674   82.4444   31.3032 H   0  0  0  0  0  0  0  0  0  0  0  0
   61.2707   84.1094   30.5814 H   0  0  0  0  0  0  0  0  0  0  0  0
   62.4786   82.9130   29.8577 H   0  0  0  0  0  0  0  0  0  0  0  0
   60.7095   82.1547   28.2688 H   0  0  0  0  0  0  0  0  0  0  0  0
   57.2251   78.7343   30.5747 H   0  0  0  0  0  0  0  0  0  0  0  0
   56.9101   80.2081   27.9033 H   0  0  0  0  0  0  0  0  0  0  0  0
   54.6583   79.8354   26.9836 H   0  0  0  0  0  0  0  0  0  0  0  0
   52.7596   78.2961   26.5246 H   0  0  0  0  0  0  0  0  0  0  0  0
   54.3527   75.4813   29.3952 H   0  0  0  0  0  0  0  0  0  0  0  0
   56.2463   77.0280   29.8558 H   0  0  0  0  0  0  0  0  0  0  0  0
  1  2  1  0
  2  3  1  0
  3  4  2  0
  3  5  1  0
  5  6  2  0
  6  7  1  0
  7  8  1  0
  7  9  1  0
  9 10  2  0
 10 11  1  0
 11 12  1  0
 11 13  1  0
 11 14  1  0
 14 15  1  0
 15 16  2  0
 16 17  1  0
 17 18  2  0
 18 19  1  0
 19 20  2  3
 20 21  1  0
 21 22  1  0
 22 23  2  0
 23 24  1  0
 24 25  1  0
 25 26  1  0
 25 27  1  0
 25 28  1  0
 24 29  2  0
 29 30  1  0
 18 31  1  0
 31 32  2  0
 10  5  1  0
 32 15  1  0
 32  9  1  0
 30 21  2  0
  1 33  1  0
  1 34  1  0
  1 35  1  0
  2 36  1  0
  8 37  1  0
  8 38  1  0
  8 39  1  0
 12 40  1  0
 12 41  1  0
 12 42  1  0
 13 43  1  0
 13 44  1  0
 13 45  1  0
 14 46  1  0
 14 47  1  0
 16 48  1  0
 19 49  1  0
 20 50  1  0
 22 51  1  0
 23 52  1  0
 29 53  1  0
 30 54  1  0
M  END
>  <meeko>  (1) 
{"is_sidechain": false}

>  <smiles>  (1) 
CNC(=O)c1nn(C)c2c1C(C)(C)Cc1cnc(C=Cc3ccc(C(F)(F)F)cc3)nc1-2

>  <vina_score>  (1) 
-9.410

>  <job_id>  (1) 
66380f1fb72d1a2b

$$$$
