
     RDKit          3D

 41 43  0  0  0  0  0  0  0  0999 V2000
   52.1840   75.3570   26.5200 C   0  0  0  0  0  0  0  0  0  0  0  0
   52.5660   76.1330   27.7810 C   0  0  0  0  0  0  0  0  0  0  0  0
   53.8930   75.6100   28.3470 C   0  0  0  0  0  0  0  0  0  0  0  0
   54.6040   76.6600   29.1980 C   0  0  0  0  0  0  0  0  0  0  0  0
   54.9050   77.8490   28.3950 N   0  0  0  0  0  0  0  0  0  0  0  0
   56.0030   78.6470   28.6850 C   0  0  0  0  0  0  0  0  0  0  0  0
   56.5970   78.6580   29.9580 C   0  0  0  0  0  0  0  0  0  0  0  0
   57.7050   79.4620   30.2550 C   0  0  0  0  0  0  0  0  0  0  0  0
   58.2500   80.2950   29.2780 C   0  0  0  0  0  0  0  0  0  0  0  0
   59.4250   81.1390   29.6320 C   0  0  0  0  0  0  0  0  0  0  0  0
   60.2690   81.3580   28.7700 O   0  0  0  0  0  0  0  0  0  0  0  0
   59.4560   81.5690   30.9450 N   0  0  0  0  0  0  0  0  0  0  0  0
   60.4300   82.3890   31.5080 C   0  0  0  0  0  0  0  0  0  0  0  0
   60.5240   83.7840   31.2040 C   0  0  0  0  0  0  0  0  0  0  0  0
   61.5610   84.4030   31.8680 C   0  0  0  0  0  0  0  0  0  0  0  0
   62.4280   83.3130   32.8560 S   0  0  0  0  0  0  0  0  0  0  0  0
   61.4140   82.0110   32.3970 C   0  0  0  0  0  0  0  0  0  0  0  0
   57.6970   80.2910   27.9980 C   0  0  0  0  0  0  0  0  0  0  0  0
   56.5880   79.4810   27.7160 C   0  0  0  0  0  0  0  0  0  0  0  0
   54.0320   78.1530   27.2560 C   0  0  0  0  0  0  0  0  0  0  0  0
   52.6130   77.6460   27.5180 C   0  0  0  0  0  0  0  0  0  0  0  0
   51.7147   74.4036   26.8042 H   0  0  0  0  0  0  0  0  0  0  0  0
   51.4755   75.9513   25.9243 H   0  0  0  0  0  0  0  0  0  0  0  0
   53.0871   75.1579   25.9243 H   0  0  0  0  0  0  0  0  0  0  0  0
   51.7859   75.9681   28.5387 H   0  0  0  0  0  0  0  0  0  0  0  0
   53.6901   74.7261   28.9695 H   0  0  0  0  0  0  0  0  0  0  0  0
   54.5482   75.3576   27.5002 H   0  0  0  0  0  0  0  0  0  0  0  0
   53.9550   76.9452   30.0391 H   0  0  0  0  0  0  0  0  0  0  0  0
   55.5462   76.2358   29.5752 H   0  0  0  0  0  0  0  0  0  0  0  0
   56.1789   78.0150   30.7465 H   0  0  0  0  0  0  0  0  0  0  0  0
   58.1467   79.4363   31.2621 H   0  0  0  0  0  0  0  0  0  0  0  0
   58.7570   81.2180   31.5860 H   0  0  0  0  0  0  0  0  0  0  0  0
   59.8429   84.3055   30.5154 H   0  0  0  0  0  0  0  0  0  0  0  0
   61.8016   85.4721   31.7728 H   0  0  0  0  0  0  0  0  0  0  0  0
   61.5348   80.9837   32.7712 H   0  0  0  0  0  0  0  0  0  0  0  0
   58.1309   80.9234   27.2095 H   0  0  0  0  0  0  0  0  0  0  0  0
   56.1611   79.4986   26.7024 H   0  0  0  0  0  0  0  0  0  0  0  0
   54.0046   79.2417   27.1015 H   0  0  0  0  0  0  0  0  0  0  0  0
   54.4287   77.6526   26.3604 H   0  0  0  0  0  0  0  0  0  0  0  0
   52.2085   78.1692   28.3970 H   0  0  0  0  0  0  0  0  0  0  0  0
   52.0155   77.8464   26.6164 H   0  0  0  0  0  0  0  0  0  0  0  0
  1  2  1  0
  2  3  1  0
  3  4  1  0
  4  5  1  0
  5  6  1  0
  6  7  1  0
  7  8  2  0
  8  9  1  0
  9 10  1  0
 10 11  2  0
 10 12  1  0
 12 13  1  0
 13 14  1  0
 14 15  2  0
 15 16  1  0
 16 17  1  0
  9 18  2  0
 18 19  1  0
  5 20  1  0
 20 21  1  0
 21  2  1  0
 19  6  2  0
 17 13  2  0
  1 22  1  0
  1 23  1  0
  1 24  1  0
  2 25  1  0
  3 26  1  0
  3 27  1  0
  4 28  1  0
  4 29  1  0
  7 30  1  0
  8 31  1  0
 12 32  1  0
 14 33  1  0
 15 34  1  0
 17 35  1  0
 18 36  1  0
 19 37  1  0
 20 38  1  0
 20 39  1  0
 21 40  1  0
 21 41  1  0
M  END
>  <meeko>  (1) 
{"is_sidechain": false}

>  <smiles>  (1) 
CC1CCN(c2ccc(C(=O)Nc3ccsc3)cc2)CC1

>  <vina_score>  (1) 
-7.376

>  <job_id>  (1) 
6649392bbdebbcf2

$$$$
