
     RDKit          3D

 55 56  0  0  0  0  0  0  0  0999 V2000
   52.5520   80.4250   24.6130 C   0  0  0  0  0  0  0  0  0  0  0  0
   52.5140   79.6730   25.8620 N   0  0  0  0  0  0  0  0  0  0  0  0
   53.5640   78.6350   25.9970 C   0  0  0  0  0  0  0  0  0  0  0  0
   52.9350   77.3170   26.5080 C   0  0  0  0  0  0  0  0  0  0  0  0
   54.0820   78.3570   24.5640 C   0  0  0  0  0  0  0  0  0  0  0  0
   54.7560   79.1310   26.8310 C   0  0  0  0  0  0  0  0  0  0  0  0
   55.5340   80.2360   26.4700 C   0  0  0  0  0  0  0  0  0  0  0  0
   56.6080   80.6640   27.2700 C   0  0  0  0  0  0  0  0  0  0  0  0
   56.9600   80.0180   28.4640 C   0  0  0  0  0  0  0  0  0  0  0  0
   58.0190   80.4570   29.2450 N   0  0  0  0  0  0  0  0  0  0  0  0
   58.7330   81.7070   28.9390 C   0  0  0  0  0  0  0  0  0  0  0  0
   60.1430   81.7180   29.5550 C   0  0  0  0  0  0  0  0  0  0  0  0
   60.1490   81.4400   30.9910 N   0  0  0  0  0  0  0  0  0  0  0  0
   61.2180   81.7320   31.8110 C   0  0  0  0  0  0  0  0  0  0  0  0
   61.2290   81.5080   33.0140 O   0  0  0  0  0  0  0  0  0  0  0  0
   62.2460   82.2870   31.1200 O   0  0  0  0  0  0  0  0  0  0  0  0
   62.7360   83.6140   31.4440 C   0  0  0  0  0  0  0  0  0  0  0  0
   63.5670   83.6040   32.7310 C   0  0  0  0  0  0  0  0  0  0  0  0
   63.6570   83.9820   30.2700 C   0  0  0  0  0  0  0  0  0  0  0  0
   61.5920   84.6320   31.5040 C   0  0  0  0  0  0  0  0  0  0  0  0
   58.9700   80.7730   31.5360 C   0  0  0  0  0  0  0  0  0  0  0  0
   58.3200   79.8030   30.5330 C   0  0  0  0  0  0  0  0  0  0  0  0
   56.1690   78.9200   28.8230 C   0  0  0  0  0  0  0  0  0  0  0  0
   55.0960   78.4850   28.0300 C   0  0  0  0  0  0  0  0  0  0  0  0
   52.6064   81.5011   24.8344 H   0  0  0  0  0  0  0  0  0  0  0  0
   53.4361   80.1252   24.0313 H   0  0  0  0  0  0  0  0  0  0  0  0
   51.6421   80.2159   24.0313 H   0  0  0  0  0  0  0  0  0  0  0  0
   52.5870   80.3270   26.6400 H   0  0  0  0  0  0  0  0  0  0  0  0
   52.9335   77.3138   27.6080 H   0  0  0  0  0  0  0  0  0  0  0  0
   51.9016   77.2369   26.1397 H   0  0  0  0  0  0  0  0  0  0  0  0
   53.5227   76.4633   26.1397 H   0  0  0  0  0  0  0  0  0  0  0  0
   55.0501   77.8375   24.6184 H   0  0  0  0  0  0  0  0  0  0  0  0
   53.3572   77.7267   24.0280 H   0  0  0  0  0  0  0  0  0  0  0  0
   54.2066   79.3094   24.0280 H   0  0  0  0  0  0  0  0  0  0  0  0
   55.3012   80.7803   25.5429 H   0  0  0  0  0  0  0  0  0  0  0  0
   57.1937   81.5375   26.9476 H   0  0  0  0  0  0  0  0  0  0  0  0
   58.8193   81.8110   27.8473 H   0  0  0  0  0  0  0  0  0  0  0  0
   58.1627   82.5436   29.3689 H   0  0  0  0  0  0  0  0  0  0  0  0
   60.7511   80.9538   29.0489 H   0  0  0  0  0  0  0  0  0  0  0  0
   60.5509   82.7303   29.4173 H   0  0  0  0  0  0  0  0  0  0  0  0
   62.8947   83.6121   33.6016 H   0  0  0  0  0  0  0  0  0  0  0  0
   64.1907   82.6983   32.7577 H   0  0  0  0  0  0  0  0  0  0  0  0
   64.2123   84.4944   32.7577 H   0  0  0  0  0  0  0  0  0  0  0  0
   64.6124   84.3638   30.6592 H   0  0  0  0  0  0  0  0  0  0  0  0
   63.8422   83.0888   29.6553 H   0  0  0  0  0  0  0  0  0  0  0  0
   63.1756   84.7569   29.6553 H   0  0  0  0  0  0  0  0  0  0  0  0
   61.3486   84.8486   32.5547 H   0  0  0  0  0  0  0  0  0  0  0  0
   61.9002   85.5600   31.0002 H   0  0  0  0  0  0  0  0  0  0  0  0
   60.7061   84.2181   31.0002 H   0  0  0  0  0  0  0  0  0  0  0  0
   59.2680   80.2067   32.4307 H   0  0  0  0  0  0  0  0  0  0  0  0
   58.2290   81.5501   31.7748 H   0  0  0  0  0  0  0  0  0  0  0  0
   59.0089   78.9646   30.3528 H   0  0  0  0  0  0  0  0  0  0  0  0
   57.3710   79.4534   30.9657 H   0  0  0  0  0  0  0  0  0  0  0  0
   56.3955   78.3818   29.7552 H   0  0  0  0  0  0  0  0  0  0  0  0
   54.5063   77.6156   28.3563 H   0  0  0  0  0  0  0  0  0  0  0  0
  1  2  1  0
  2  3  1  0
  3  4  1  0
  3  5  1  0
  3  6  1  0
  6  7  1  0
  7  8  2  0
  8  9  1  0
  9 10  1  0
 10 11  1  0
 11 12  1  0
 12 13  1  0
 13 14  1  0
 14 15  2  0
 14 16  1  0
 16 17  1  0
 17 18  1  0
 17 19  1  0
 17 20  1  0
 13 21  1  0
 21 22  1  0
  9 23  2  0
 23 24  1  0
 24  6  2  0
 22 10  1  0
  1 25  1  0
  1 26  1  0
  1 27  1  0
  2 28  1  0
  4 29  1  0
  4 30  1  0
  4 31  1  0
  5 32  1  0
  5 33  1  0
  5 34  1  0
  7 35  1  0
  8 36  1  0
 11 37  1  0
 11 38  1  0
 12 39  1  0
 12 40  1  0
 18 41  1  0
 18 42  1  0
 18 43  1  0
 19 44  1  0
 19 45  1  0
 19 46  1  0
 20 47  1  0
 20 48  1  0
 20 49  1  0
 21 50  1  0
 21 51  1  0
 22 52  1  0
 22 53  1  0
 23 54  1  0
 24 55  1  0
M  END
>  <meeko>  (1) 
{"is_sidechain": false}

>  <smiles>  (1) 
CNC(C)(C)c1ccc(N2CCN(C(=O)OC(C)(C)C)CC2)cc1

>  <vina_score>  (1) 
-6.605

>  <job_id>  (1) 
66f380f2879a54e7

$$$$
