
     RDKit          3D

 52 54  0  0  0  0  0  0  0  0999 V2000
   55.6770   83.2790   26.1610 C   0  0  0  0  0  0  0  0  0  0  0  0
   54.2360   82.7960   26.0350 C   0  0  0  0  0  0  0  0  0  0  0  0
   54.0580   81.4820   25.2570 C   0  0  2  0  0  0  0  0  0  0  0  0
   53.2360   81.6750   23.9660 C   0  0  0  0  0  0  0  0  0  0  0  0
   53.3080   80.5080   23.1410 O   0  0  0  0  0  0  0  0  0  0  0  0
   53.4220   80.4580   26.0770 N   0  0  0  0  0  0  0  0  0  0  0  0
   54.1120   79.5720   26.8530 C   0  0  0  0  0  0  0  0  0  0  0  0
   55.3860   79.9010   27.2550 N   0  0  0  0  0  0  0  0  0  0  0  0
   56.0750   79.0830   27.9970 C   0  0  0  0  0  0  0  0  0  0  0  0
   57.3510   79.3920   28.4110 N   0  0  0  0  0  0  0  0  0  0  0  0
   57.8260   80.7540   28.4700 C   0  0  0  0  0  0  0  0  0  0  0  0
   58.6200   80.9570   29.7370 C   0  0  0  0  0  0  0  0  0  0  0  0
   59.6550   81.9010   29.7890 C   0  0  0  0  0  0  0  0  0  0  0  0
   60.3750   82.0960   30.9690 C   0  0  0  0  0  0  0  0  0  0  0  0
   60.0640   81.3560   32.1080 C   0  0  0  0  0  0  0  0  0  0  0  0
   59.0300   80.4220   32.0710 C   0  0  0  0  0  0  0  0  0  0  0  0
   58.3090   80.2250   30.8920 C   0  0  0  0  0  0  0  0  0  0  0  0
   55.4510   77.8510   28.3660 C   0  0  0  0  0  0  0  0  0  0  0  0
   55.9270   76.8840   29.1210 N   0  0  0  0  0  0  0  0  0  0  0  0
   54.9090   75.9620   29.1400 C   0  0  0  0  0  0  0  0  0  0  0  0
   53.8180   76.3860   28.3970 C   0  0  0  0  0  0  0  0  0  0  0  0
   52.4890   75.7590   28.1170 C   0  0  0  0  0  0  0  0  0  0  0  0
   52.3770   75.3570   26.6460 C   0  0  0  0  0  0  0  0  0  0  0  0
   51.3480   76.7000   28.5080 C   0  0  0  0  0  0  0  0  0  0  0  0
   54.1950   77.6160   27.9140 N   0  0  0  0  0  0  0  0  0  0  0  0
   53.4900   78.4620   27.1440 N   0  0  0  0  0  0  0  0  0  0  0  0
   55.9422   83.3679   27.2248 H   0  0  0  0  0  0  0  0  0  0  0  0
   56.3495   82.5572   25.6745 H   0  0  0  0  0  0  0  0  0  0  0  0
   55.7787   84.2603   25.6745 H   0  0  0  0  0  0  0  0  0  0  0  0
   53.8351   82.6495   27.0488 H   0  0  0  0  0  0  0  0  0  0  0  0
   53.7015   83.5680   25.4619 H   0  0  0  0  0  0  0  0  0  0  0  0
   55.0709   81.1527   24.9821 H   0  0  0  0  0  0  0  0  0  0  0  0
   52.1856   81.8650   24.2318 H   0  0  0  0  0  0  0  0  0  0  0  0
   53.6490   82.5283   23.4082 H   0  0  0  0  0  0  0  0  0  0  0  0
   53.8030   80.7430   22.3370 H   0  0  0  0  0  0  0  0  0  0  0  0
   52.6190   80.0140   25.6390 H   0  0  0  0  0  0  0  0  0  0  0  0
   57.7060   78.7750   29.1390 H   0  0  0  0  0  0  0  0  0  0  0  0
   58.4672   80.9565   27.5994 H   0  0  0  0  0  0  0  0  0  0  0  0
   56.9675   81.4417   28.4619 H   0  0  0  0  0  0  0  0  0  0  0  0
   59.9014   82.4918   28.8944 H   0  0  0  0  0  0  0  0  0  0  0  0
   61.1892   82.8350   30.9997 H   0  0  0  0  0  0  0  0  0  0  0  0
   60.6343   81.5089   33.0361 H   0  0  0  0  0  0  0  0  0  0  0  0
   58.7821   79.8401   32.9710 H   0  0  0  0  0  0  0  0  0  0  0  0
   57.4908   79.4901   30.8688 H   0  0  0  0  0  0  0  0  0  0  0  0
   54.9539   75.0041   29.6790 H   0  0  0  0  0  0  0  0  0  0  0  0
   52.4072   74.8490   28.7296 H   0  0  0  0  0  0  0  0  0  0  0  0
   52.0824   74.2995   26.5763 H   0  0  0  0  0  0  0  0  0  0  0  0
   51.6188   75.9822   26.1517 H   0  0  0  0  0  0  0  0  0  0  0  0
   53.3492   75.5001   26.1517 H   0  0  0  0  0  0  0  0  0  0  0  0
   51.2790   76.7569   29.6044 H   0  0  0  0  0  0  0  0  0  0  0  0
   51.5437   77.7028   28.1004 H   0  0  0  0  0  0  0  0  0  0  0  0
   50.4008   76.3170   28.1004 H   0  0  0  0  0  0  0  0  0  0  0  0
  1  2  1  0
  2  3  1  0
  3  4  1  0
  4  5  1  0
  3  6  1  0
  6  7  1  0
  7  8  1  0
  8  9  2  0
  9 10  1  0
 10 11  1  0
 11 12  1  0
 12 13  2  0
 13 14  1  0
 14 15  2  0
 15 16  1  0
 16 17  2  0
  9 18  1  0
 18 19  2  0
 19 20  1  0
 20 21  2  0
 21 22  1  0
 22 23  1  0
 22 24  1  0
 21 25  1  0
 25 26  1  0
 26  7  2  0
 17 12  1  0
 25 18  1  0
  1 27  1  0
  1 28  1  0
  1 29  1  0
  2 30  1  0
  2 31  1  0
  3 32  1  6
  4 33  1  0
  4 34  1  0
  5 35  1  0
  6 36  1  0
 10 37  1  0
 11 38  1  0
 11 39  1  0
 13 40  1  0
 14 41  1  0
 15 42  1  0
 16 43  1  0
 17 44  1  0
 20 45  1  0
 22 46  1  0
 23 47  1  0
 23 48  1  0
 23 49  1  0
 24 50  1  0
 24 51  1  0
 24 52  1  0
M  END
>  <meeko>  (1) 
{"is_sidechain": false}

>  <smiles>  (1) 
CC[C@H](CO)Nc1nc(NCc2ccccc2)c2ncc(C(C)C)n2n1

>  <vina_score>  (1) 
-7.620

>  <job_id>  (1) 
672c0537ec390235

$$$$
