
     RDKit          3D

 40 41  0  0  0  0  0  0  0  0999 V2000
   61.3280   84.6210   31.6850 C   0  0  0  0  0  0  0  0  0  0  0  0
   59.9770   83.7270   32.3770 S   0  0  0  0  0  0  0  0  0  0  0  0
   58.6020   84.8200   32.5120 C   0  0  0  0  0  0  0  0  0  0  0  0
   60.4350   83.2460   34.0060 C   0  0  0  0  0  0  0  0  0  0  0  0
   59.5740   82.3850   31.3600 C   0  0  0  0  0  0  0  0  0  0  0  0
   59.9920   82.4110   30.0310 C   0  0  0  0  0  0  0  0  0  0  0  0
   59.6830   81.3420   29.1890 C   0  0  0  0  0  0  0  0  0  0  0  0
   58.9450   80.2640   29.6820 C   0  0  0  0  0  0  0  0  0  0  0  0
   58.6400   79.1690   28.9080 O   0  0  0  0  0  0  0  0  0  0  0  0
   57.3520   79.0760   28.4290 C   0  0  0  0  0  0  0  0  0  0  0  0
   56.4620   78.0750   28.8310 C   0  0  0  0  0  0  0  0  0  0  0  0
   55.1830   78.0170   28.2720 C   0  0  0  0  0  0  0  0  0  0  0  0
   54.8100   78.9590   27.3070 C   0  0  0  0  0  0  0  0  0  0  0  0
   53.1880   78.8710   26.5940 S   0  0  0  0  0  0  0  0  0  0  0  0
   53.5390   78.3630   25.0260 N   0  0  0  0  0  0  0  0  0  0  0  0
   52.6480   80.2070   26.5200 O   0  0  0  0  0  0  0  0  0  0  0  0
   52.4750   77.7740   27.2050 O   0  0  0  0  0  0  0  0  0  0  0  0
   55.7080   79.9400   26.8770 C   0  0  0  0  0  0  0  0  0  0  0  0
   56.9840   79.9940   27.4410 C   0  0  0  0  0  0  0  0  0  0  0  0
   58.5530   80.2320   31.0200 C   0  0  0  0  0  0  0  0  0  0  0  0
   58.8610   81.3010   31.8640 C   0  0  0  0  0  0  0  0  0  0  0  0
   61.9489   85.0319   32.4947 H   0  0  0  0  0  0  0  0  0  0  0  0
   61.9350   83.9457   31.0641 H   0  0  0  0  0  0  0  0  0  0  0  0
   60.9437   85.4437   31.0641 H   0  0  0  0  0  0  0  0  0  0  0  0
   58.3780   84.9980   33.5741 H   0  0  0  0  0  0  0  0  0  0  0  0
   58.8436   85.7753   32.0231 H   0  0  0  0  0  0  0  0  0  0  0  0
   57.7258   84.3691   32.0231 H   0  0  0  0  0  0  0  0  0  0  0  0
   59.8682   83.8412   34.7371 H   0  0  0  0  0  0  0  0  0  0  0  0
   60.2111   82.1787   34.1498 H   0  0  0  0  0  0  0  0  0  0  0  0
   61.5120   83.4174   34.1498 H   0  0  0  0  0  0  0  0  0  0  0  0
   60.5626   83.2697   29.6476 H   0  0  0  0  0  0  0  0  0  0  0  0
   60.0193   81.3485   28.1417 H   0  0  0  0  0  0  0  0  0  0  0  0
   56.7682   77.3353   29.5853 H   0  0  0  0  0  0  0  0  0  0  0  0
   54.4748   77.2369   28.5880 H   0  0  0  0  0  0  0  0  0  0  0  0
   54.0040   77.4540   25.0710 H   0  0  0  0  0  0  0  0  0  0  0  0
   54.0780   79.0430   24.4920 H   0  0  0  0  0  0  0  0  0  0  0  0
   55.4123   80.6623   26.1019 H   0  0  0  0  0  0  0  0  0  0  0  0
   57.7003   80.7594   27.1077 H   0  0  0  0  0  0  0  0  0  0  0  0
   58.0010   79.3644   31.4106 H   0  0  0  0  0  0  0  0  0  0  0  0
   58.5432   81.2866   32.9170 H   0  0  0  0  0  0  0  0  0  0  0  0
  1  2  1  0
  2  3  1  0
  2  4  1  0
  2  5  1  0
  5  6  1  0
  6  7  2  0
  7  8  1  0
  8  9  1  0
  9 10  1  0
 10 11  1  0
 11 12  2  0
 12 13  1  0
 13 14  1  0
 14 15  1  0
 14 16  2  0
 14 17  2  0
 13 18  2  0
 18 19  1  0
  8 20  2  0
 20 21  1  0
 21  5  2  0
 19 10  2  0
  1 22  1  0
  1 23  1  0
  1 24  1  0
  3 25  1  0
  3 26  1  0
  3 27  1  0
  4 28  1  0
  4 29  1  0
  4 30  1  0
  6 31  1  0
  7 32  1  0
 11 33  1  0
 12 34  1  0
 15 35  1  0
 15 36  1  0
 18 37  1  0
 19 38  1  0
 20 39  1  0
 21 40  1  0
M  END
>  <meeko>  (1) 
{"is_sidechain": false}

>  <smiles>  (1) 
CS(C)(C)c1ccc(Oc2ccc(S(N)(=O)=O)cc2)cc1

>  <vina_score>  (1) 
-7.177

>  <job_id>  (1) 
679405d0f7a2b10c

$$$$
