
     RDKit          3D

 35 36  0  0  0  0  0  0  0  0999 V2000
   53.2470   76.9480   27.6720 C   0  0  0  0  0  0  0  0  0  0  0  0
   54.1110   77.6530   28.7190 C   0  0  0  0  0  0  0  0  0  0  0  0
   54.9280   76.6480   29.5320 C   0  0  0  0  0  0  0  0  0  0  0  0
   54.9830   78.7260   28.1040 C   0  0  0  0  0  0  0  0  0  0  0  0
   56.3070   78.6610   28.3910 N   0  0  0  0  0  0  0  0  0  0  0  0
   57.1020   79.6080   27.8570 C   0  0  0  0  0  0  0  0  0  0  0  0
   58.4510   79.4770   28.1700 O   0  0  0  0  0  0  0  0  0  0  0  0
   58.9050   80.2170   29.2310 C   0  0  0  0  0  0  0  0  0  0  0  0
   59.6850   81.3580   29.0150 C   0  0  0  0  0  0  0  0  0  0  0  0
   60.1000   82.1260   30.1040 C   0  0  0  0  0  0  0  0  0  0  0  0
   59.7090   81.7570   31.3960 C   0  0  0  0  0  0  0  0  0  0  0  0
   60.2610   82.7110   32.7790 S   0  0  0  0  0  0  0  0  0  0  0  0
   59.3060   82.1070   34.0200 N   0  0  0  0  0  0  0  0  0  0  0  0
   59.8580   84.0870   32.6030 O   0  0  0  0  0  0  0  0  0  0  0  0
   61.6170   82.3370   33.1060 O   0  0  0  0  0  0  0  0  0  0  0  0
   58.9190   80.6220   31.6110 C   0  0  0  0  0  0  0  0  0  0  0  0
   58.5060   79.8570   30.5190 C   0  0  0  0  0  0  0  0  0  0  0  0
   56.6850   80.6070   27.0550 N   0  0  0  0  0  0  0  0  0  0  0  0
   55.3630   80.6370   26.7930 C   0  0  0  0  0  0  0  0  0  0  0  0
   54.4680   79.7220   27.2930 C   0  0  0  0  0  0  0  0  0  0  0  0
   53.1660   79.8060   26.9970 F   0  0  0  0  0  0  0  0  0  0  0  0
   52.4899   76.3302   28.1771 H   0  0  0  0  0  0  0  0  0  0  0  0
   52.7471   77.6993   27.0430 H   0  0  0  0  0  0  0  0  0  0  0  0
   53.8827   76.3075   27.0430 H   0  0  0  0  0  0  0  0  0  0  0  0
   53.4304   78.1632   29.4165 H   0  0  0  0  0  0  0  0  0  0  0  0
   54.7761   76.8349   30.6053 H   0  0  0  0  0  0  0  0  0  0  0  0
   54.6009   75.6266   29.2877 H   0  0  0  0  0  0  0  0  0  0  0  0
   55.9947   76.7597   29.2877 H   0  0  0  0  0  0  0  0  0  0  0  0
   59.9696   81.6482   27.9929 H   0  0  0  0  0  0  0  0  0  0  0  0
   60.7295   83.0144   29.9479 H   0  0  0  0  0  0  0  0  0  0  0  0
   59.5220   82.5920   34.8920 H   0  0  0  0  0  0  0  0  0  0  0  0
   59.4110   81.0940   34.0760 H   0  0  0  0  0  0  0  0  0  0  0  0
   58.6261   80.3352   32.6318 H   0  0  0  0  0  0  0  0  0  0  0  0
   57.8686   78.9739   30.6730 H   0  0  0  0  0  0  0  0  0  0  0  0
   54.9797   81.4377   26.1434 H   0  0  0  0  0  0  0  0  0  0  0  0
  1  2  1  0
  2  3  1  0
  2  4  1  0
  4  5  2  0
  5  6  1  0
  6  7  1  0
  7  8  1  0
  8  9  1  0
  9 10  2  0
 10 11  1  0
 11 12  1  0
 12 13  1  0
 12 14  2  0
 12 15  2  0
 11 16  2  0
 16 17  1  0
  6 18  2  0
 18 19  1  0
 19 20  2  0
 20 21  1  0
 20  4  1  0
 17  8  2  0
  1 22  1  0
  1 23  1  0
  1 24  1  0
  2 25  1  0
  3 26  1  0
  3 27  1  0
  3 28  1  0
  9 29  1  0
 10 30  1  0
 13 31  1  0
 13 32  1  0
 16 33  1  0
 17 34  1  0
 19 35  1  0
M  END
>  <meeko>  (1) 
{"is_sidechain": false}

>  <smiles>  (1) 
CC(C)c1nc(Oc2ccc(S(N)(=O)=O)cc2)ncc1F

>  <vina_score>  (1) 
-7.703

>  <job_id>  (1) 
679414c47e97c057

$$$$
