
     RDKit          3D

 72 76  0  0  0  0  0  0  0  0999 V2000
   52.9590   88.1060   38.2050 C   0  0  0  0  0  0  0  0  0  0  0  0
   53.1660   88.7030   37.0190 C   0  0  0  0  0  0  0  0  0  0  0  0
   52.1400   89.6180   36.4100 C   0  0  0  0  0  0  0  0  0  0  0  0
   54.4140   88.4660   36.2600 C   0  0  0  0  0  0  0  0  0  0  0  0
   54.5710   88.9590   34.9580 C   0  0  0  0  0  0  0  0  0  0  0  0
   55.7480   88.7190   34.2360 C   0  0  0  0  0  0  0  0  0  0  0  0
   56.8000   87.9820   34.7900 C   0  0  0  0  0  0  0  0  0  0  0  0
   57.9430   87.7360   34.0110 N   0  0  0  0  0  0  0  0  0  0  0  0
   58.4900   86.5520   33.4890 C   0  0  0  0  0  0  0  0  0  0  0  0
   57.8500   85.7790   32.5190 C   0  0  0  0  0  0  0  0  0  0  0  0
   58.4190   84.5840   32.0570 C   0  0  0  0  0  0  0  0  0  0  0  0
   59.6380   84.1170   32.5620 C   0  0  0  0  0  0  0  0  0  0  0  0
   60.1840   82.9340   32.0400 N   0  0  0  0  0  0  0  0  0  0  0  0
   59.6230   81.8900   31.2860 C   0  0  0  0  0  0  0  0  0  0  0  0
   59.8500   81.8480   29.9070 C   0  0  0  0  0  0  0  0  0  0  0  0
   59.2820   80.8480   29.1040 C   0  0  0  0  0  0  0  0  0  0  0  0
   58.4680   79.8550   29.6510 C   0  0  0  0  0  0  0  0  0  0  0  0
   57.8650   78.8380   28.9070 N   0  0  0  0  0  0  0  0  0  0  0  0
   56.5530   78.4090   28.7360 C   0  0  0  0  0  0  0  0  0  0  0  0
   55.9580   77.5690   29.5950 N   0  0  0  0  0  0  0  0  0  0  0  0
   54.6820   77.2250   29.3460 C   0  0  0  0  0  0  0  0  0  0  0  0
   53.9740   77.6810   28.2670 C   0  0  0  0  0  0  0  0  0  0  0  0
   54.6650   78.5240   27.4290 C   0  0  0  0  0  0  0  0  0  0  0  0
   54.0400   79.1060   26.2460 C   0  0  0  0  0  0  0  0  0  0  0  0
   53.4660   78.4650   25.1670 C   0  0  0  0  0  0  0  0  0  0  0  0
   52.9600   79.3530   24.2670 N   0  0  0  0  0  0  0  0  0  0  0  0
   53.1930   80.5490   24.7660 C   0  0  0  0  0  0  0  0  0  0  0  0
   52.7610   81.8060   24.1020 C   0  0  0  0  0  0  0  0  0  0  0  0
   53.8920   80.4600   25.9580 N   0  0  0  0  0  0  0  0  0  0  0  0
   54.4200   81.5580   26.7710 C   0  0  0  0  0  0  0  0  0  0  0  0
   55.5550   82.3440   26.1090 C   0  0  0  0  0  0  0  0  0  0  0  0
   53.3100   82.4820   27.2720 C   0  0  0  0  0  0  0  0  0  0  0  0
   55.9400   78.8990   27.6470 N   0  0  0  0  0  0  0  0  0  0  0  0
   58.2350   79.9070   31.0330 C   0  0  0  0  0  0  0  0  0  0  0  0
   58.7990   80.9080   31.8360 C   0  0  0  0  0  0  0  0  0  0  0  0
   60.2770   84.8910   33.5320 C   0  0  0  0  0  0  0  0  0  0  0  0
   59.7100   86.0860   33.9940 C   0  0  0  0  0  0  0  0  0  0  0  0
   56.6360   87.4810   36.0830 C   0  0  0  0  0  0  0  0  0  0  0  0
   55.4620   87.7190   36.8100 C   0  0  0  0  0  0  0  0  0  0  0  0
   53.7267   87.4411   38.6275 H   0  0  0  0  0  0  0  0  0  0  0  0
   52.0218   88.2822   38.7533 H   0  0  0  0  0  0  0  0  0  0  0  0
   51.5763   90.1207   37.2097 H   0  0  0  0  0  0  0  0  0  0  0  0
   52.6443   90.3716   35.7874 H   0  0  0  0  0  0  0  0  0  0  0  0
   51.4488   89.0310   35.7874 H   0  0  0  0  0  0  0  0  0  0  0  0
   53.7602   89.5418   34.4966 H   0  0  0  0  0  0  0  0  0  0  0  0
   55.8463   89.1173   33.2154 H   0  0  0  0  0  0  0  0  0  0  0  0
   58.4750   88.5690   33.7860 H   0  0  0  0  0  0  0  0  0  0  0  0
   56.8845   86.1125   32.1109 H   0  0  0  0  0  0  0  0  0  0  0  0
   57.8975   84.0022   31.2827 H   0  0  0  0  0  0  0  0  0  0  0  0
   61.1680   82.8070   32.2470 H   0  0  0  0  0  0  0  0  0  0  0  0
   60.4871   82.6149   29.4423 H   0  0  0  0  0  0  0  0  0  0  0  0
   59.4820   80.8464   28.0223 H   0  0  0  0  0  0  0  0  0  0  0  0
   58.4630   78.3110   28.2870 H   0  0  0  0  0  0  0  0  0  0  0  0
   54.1807   76.5409   30.0466 H   0  0  0  0  0  0  0  0  0  0  0  0
   52.9281   77.3939   28.0836 H   0  0  0  0  0  0  0  0  0  0  0  0
   53.4226   77.3722   25.0486 H   0  0  0  0  0  0  0  0  0  0  0  0
   52.5038   82.5545   24.8659 H   0  0  0  0  0  0  0  0  0  0  0  0
   53.5791   82.1890   23.4743 H   0  0  0  0  0  0  0  0  0  0  0  0
   51.8803   81.6051   23.4743 H   0  0  0  0  0  0  0  0  0  0  0  0
   54.8773   81.0705   27.6446 H   0  0  0  0  0  0  0  0  0  0  0  0
   56.1954   82.7875   26.8856 H   0  0  0  0  0  0  0  0  0  0  0  0
   56.1538   81.6662   25.4829 H   0  0  0  0  0  0  0  0  0  0  0  0
   55.1312   83.1430   25.4829 H   0  0  0  0  0  0  0  0  0  0  0  0
   53.3050   82.4862   28.3720 H   0  0  0  0  0  0  0  0  0  0  0  0
   53.4878   83.5026   26.9023 H   0  0  0  0  0  0  0  0  0  0  0  0
   52.3385   82.1221   26.9023 H   0  0  0  0  0  0  0  0  0  0  0  0
   57.5940   79.1436   31.4982 H   0  0  0  0  0  0  0  0  0  0  0  0
   58.5887   80.9193   32.9157 H   0  0  0  0  0  0  0  0  0  0  0  0
   61.2421   84.5571   33.9406 H   0  0  0  0  0  0  0  0  0  0  0  0
   60.2325   86.6684   34.7671 H   0  0  0  0  0  0  0  0  0  0  0  0
   57.4430   86.8888   36.5391 H   0  0  0  0  0  0  0  0  0  0  0  0
   55.3626   87.3129   37.8275 H   0  0  0  0  0  0  0  0  0  0  0  0
  1  2  2  0
  2  3  1  0
  2  4  1  0
  4  5  1  0
  5  6  2  0
  6  7  1  0
  7  8  1  0
  8  9  1  0
  9 10  1  0
 10 11  2  0
 11 12  1  0
 12 13  1  0
 13 14  1  0
 14 15  1  0
 15 16  2  0
 16 17  1  0
 17 18  1  0
 18 19  1  0
 19 20  2  0
 20 21  1  0
 21 22  2  0
 22 23  1  0
 23 24  1  0
 24 25  2  0
 25 26  1  0
 26 27  2  0
 27 28  1  0
 27 29  1  0
 29 30  1  0
 30 31  1  0
 30 32  1  0
 23 33  2  0
 17 34  2  0
 34 35  1  0
 12 36  2  0
 36 37  1  0
  7 38  2  0
 38 39  1  0
 39  4  2  0
 37  9  2  0
 35 14  2  0
 33 19  1  0
 29 24  1  0
  1 40  1  0
  1 41  1  0
  3 42  1  0
  3 43  1  0
  3 44  1  0
  5 45  1  0
  6 46  1  0
  8 47  1  0
 10 48  1  0
 11 49  1  0
 13 50  1  0
 15 51  1  0
 16 52  1  0
 18 53  1  0
 21 54  1  0
 22 55  1  0
 25 56  1  0
 28 57  1  0
 28 58  1  0
 28 59  1  0
 30 60  1  0
 31 61  1  0
 31 62  1  0
 31 63  1  0
 32 64  1  0
 32 65  1  0
 32 66  1  0
 34 67  1  0
 35 68  1  0
 36 69  1  0
 37 70  1  0
 38 71  1  0
 39 72  1  0
M  END
>  <meeko>  (1) 
{"is_sidechain": false}

>  <smiles>  (1) 
C=C(C)c1ccc(Nc2ccc(Nc3ccc(Nc4nccc(-c5cnc(C)n5C(C)C)n4)cc3)cc2)cc1

>  <vina_score>  (1) 
-9.066

>  <job_id>  (1) 
6827b481b1868739

$$$$
