
     RDKit          3D

 41 42  0  0  0  0  0  0  0  0999 V2000
   64.3970   82.3920   31.0200 C   0  0  0  0  0  0  0  0  0  0  0  0
   63.0170   82.3280   31.6620 C   0  0  0  0  0  0  0  0  0  0  0  0
   63.1050   82.6050   33.1580 C   0  0  0  0  0  0  0  0  0  0  0  0
   62.2090   83.3400   31.0310 O   0  0  0  0  0  0  0  0  0  0  0  0
   60.8980   83.0320   30.8400 C   0  0  0  0  0  0  0  0  0  0  0  0
   59.9770   83.8130   31.0170 O   0  0  0  0  0  0  0  0  0  0  0  0
   60.8320   81.7310   30.4290 N   0  0  0  0  0  0  0  0  0  0  0  0
   59.6950   80.9710   30.1090 C   0  0  0  0  0  0  0  0  0  0  0  0
   58.9530   80.2510   31.0440 C   0  0  0  0  0  0  0  0  0  0  0  0
   57.8300   79.5150   30.6450 C   0  0  0  0  0  0  0  0  0  0  0  0
   57.4180   79.4830   29.3040 C   0  0  0  0  0  0  0  0  0  0  0  0
   56.2360   78.7090   28.8900 C   0  0  0  0  0  0  0  0  0  0  0  0
   55.4120   79.1530   27.8410 C   0  0  0  0  0  0  0  0  0  0  0  0
   54.2910   78.4210   27.4430 C   0  0  0  0  0  0  0  0  0  0  0  0
   53.9800   77.2300   28.1010 C   0  0  0  0  0  0  0  0  0  0  0  0
   52.5600   76.3000   27.5890 S   0  0  0  0  0  0  0  0  0  0  0  0
   53.0130   74.7350   28.0200 N   0  0  0  0  0  0  0  0  0  0  0  0
   51.4410   76.6840   28.4130 O   0  0  0  0  0  0  0  0  0  0  0  0
   52.5050   76.3030   26.1450 O   0  0  0  0  0  0  0  0  0  0  0  0
   54.7870   76.7580   29.1370 C   0  0  0  0  0  0  0  0  0  0  0  0
   55.9050   77.5000   29.5280 C   0  0  0  0  0  0  0  0  0  0  0  0
   58.1710   80.2130   28.3740 C   0  0  0  0  0  0  0  0  0  0  0  0
   59.2950   80.9480   28.7700 C   0  0  0  0  0  0  0  0  0  0  0  0
   65.1658   82.4276   31.8060 H   0  0  0  0  0  0  0  0  0  0  0  0
   64.5525   81.5001   30.3952 H   0  0  0  0  0  0  0  0  0  0  0  0
   64.4693   83.2945   30.3952 H   0  0  0  0  0  0  0  0  0  0  0  0
   62.5816   81.3265   31.5299 H   0  0  0  0  0  0  0  0  0  0  0  0
   62.8179   81.7014   33.7157 H   0  0  0  0  0  0  0  0  0  0  0  0
   64.1363   82.8848   33.4190 H   0  0  0  0  0  0  0  0  0  0  0  0
   62.4243   83.4287   33.4190 H   0  0  0  0  0  0  0  0  0  0  0  0
   61.7360   81.2890   30.3570 H   0  0  0  0  0  0  0  0  0  0  0  0
   59.2515   80.2609   32.1027 H   0  0  0  0  0  0  0  0  0  0  0  0
   57.2598   78.9509   31.3978 H   0  0  0  0  0  0  0  0  0  0  0  0
   55.6544   80.0935   27.3246 H   0  0  0  0  0  0  0  0  0  0  0  0
   53.6585   78.7802   26.6178 H   0  0  0  0  0  0  0  0  0  0  0  0
   53.0870   74.1030   27.2240 H   0  0  0  0  0  0  0  0  0  0  0  0
   52.3600   74.3870   28.7240 H   0  0  0  0  0  0  0  0  0  0  0  0
   54.5454   75.8107   29.6413 H   0  0  0  0  0  0  0  0  0  0  0  0
   56.5373   77.1319   30.3494 H   0  0  0  0  0  0  0  0  0  0  0  0
   57.8738   80.2083   27.3149 H   0  0  0  0  0  0  0  0  0  0  0  0
   59.8686   81.5126   28.0202 H   0  0  0  0  0  0  0  0  0  0  0  0
  1  2  1  0
  2  3  1  0
  2  4  1  0
  4  5  1  0
  5  6  2  0
  5  7  1  0
  7  8  1  0
  8  9  1  0
  9 10  2  0
 10 11  1  0
 11 12  1  0
 12 13  1  0
 13 14  2  0
 14 15  1  0
 15 16  1  0
 16 17  1  0
 16 18  2  0
 16 19  2  0
 15 20  2  0
 20 21  1  0
 11 22  2  0
 22 23  1  0
 23  8  2  0
 21 12  2  0
  1 24  1  0
  1 25  1  0
  1 26  1  0
  2 27  1  0
  3 28  1  0
  3 29  1  0
  3 30  1  0
  7 31  1  0
  9 32  1  0
 10 33  1  0
 13 34  1  0
 14 35  1  0
 17 36  1  0
 17 37  1  0
 20 38  1  0
 21 39  1  0
 22 40  1  0
 23 41  1  0
M  END
>  <meeko>  (1) 
{"is_sidechain": false}

>  <smiles>  (1) 
CC(C)OC(=O)Nc1ccc(-c2ccc(S(N)(=O)=O)cc2)cc1

>  <vina_score>  (1) 
-7.809

>  <job_id>  (1) 
68466075892d8153

$$$$
