
     RDKit          3D

 34 36  0  0  0  0  0  0  0  0999 V2000
   49.5530   81.3570   22.2180 N   0  0  0  0  0  0  0  0  0  0  0  0
   51.0670   81.6930   21.5760 S   0  0  0  0  0  0  0  0  0  0  0  0
   51.0930   83.1190   21.3450 O   0  0  0  0  0  0  0  0  0  0  0  0
   51.2680   80.7340   20.5140 O   0  0  0  0  0  0  0  0  0  0  0  0
   52.1350   81.3000   22.9280 C   0  0  0  0  0  0  0  0  0  0  0  0
   52.5110   79.9770   23.1500 C   0  0  0  0  0  0  0  0  0  0  0  0
   53.3380   79.6650   24.2360 C   0  0  0  0  0  0  0  0  0  0  0  0
   53.7910   80.6560   25.1150 C   0  0  0  0  0  0  0  0  0  0  0  0
   54.6210   80.4050   26.2120 N   0  0  0  0  0  0  0  0  0  0  0  0
   54.7180   79.3740   27.1420 C   0  0  0  0  0  0  0  0  0  0  0  0
   55.7310   79.2910   28.0110 N   0  0  0  0  0  0  0  0  0  0  0  0
   55.7210   78.2540   28.8610 C   0  0  0  0  0  0  0  0  0  0  0  0
   54.7370   77.2970   28.8760 C   0  0  0  0  0  0  0  0  0  0  0  0
   53.7150   77.4350   27.9560 C   0  0  0  0  0  0  0  0  0  0  0  0
   52.5550   76.4630   27.8450 C   0  0  0  0  0  0  0  0  0  0  0  0
   52.7720   74.9820   27.6430 C   0  0  0  0  0  0  0  0  0  0  0  0
   52.1850   75.8100   26.5360 C   0  0  0  0  0  0  0  0  0  0  0  0
   53.7160   78.4780   27.0930 N   0  0  0  0  0  0  0  0  0  0  0  0
   53.3860   81.9810   24.8730 C   0  0  0  0  0  0  0  0  0  0  0  0
   52.5600   82.3080   23.7920 C   0  0  0  0  0  0  0  0  0  0  0  0
   49.4300   81.8580   23.0970 H   0  0  0  0  0  0  0  0  0  0  0  0
   49.4270   80.3470   22.2940 H   0  0  0  0  0  0  0  0  0  0  0  0
   52.1601   79.1818   22.4758 H   0  0  0  0  0  0  0  0  0  0  0  0
   53.6379   78.6198   24.4019 H   0  0  0  0  0  0  0  0  0  0  0  0
   55.3150   81.1040   26.4360 H   0  0  0  0  0  0  0  0  0  0  0  0
   56.5448   78.1655   29.5845 H   0  0  0  0  0  0  0  0  0  0  0  0
   54.7609   76.4586   29.5877 H   0  0  0  0  0  0  0  0  0  0  0  0
   52.0257   77.0800   28.5860 H   0  0  0  0  0  0  0  0  0  0  0  0
   53.7931   74.5838   27.5494 H   0  0  0  0  0  0  0  0  0  0  0  0
   52.4655   74.0715   28.1788 H   0  0  0  0  0  0  0  0  0  0  0  0
   52.7765   76.0174   25.6321 H   0  0  0  0  0  0  0  0  0  0  0  0
   51.2710   75.7555   25.9264 H   0  0  0  0  0  0  0  0  0  0  0  0
   53.7266   82.7788   25.5494 H   0  0  0  0  0  0  0  0  0  0  0  0
   52.2491   83.3500   23.6256 H   0  0  0  0  0  0  0  0  0  0  0  0
  1  2  1  0
  2  3  2  0
  2  4  2  0
  2  5  1  0
  5  6  1  0
  6  7  2  0
  7  8  1  0
  8  9  1  0
  9 10  1  0
 10 11  2  0
 11 12  1  0
 12 13  2  0
 13 14  1  0
 14 15  1  0
 15 16  1  0
 16 17  1  0
 14 18  2  0
  8 19  2  0
 19 20  1  0
 20  5  2  0
 18 10  1  0
 17 15  1  0
  1 21  1  0
  1 22  1  0
  6 23  1  0
  7 24  1  0
  9 25  1  0
 12 26  1  0
 13 27  1  0
 15 28  1  0
 16 29  1  0
 16 30  1  0
 17 31  1  0
 17 32  1  0
 19 33  1  0
 20 34  1  0
M  END
>  <meeko>  (1) 
{"is_sidechain": false}

>  <smiles>  (1) 
NS(=O)(=O)c1ccc(Nc2nccc(C3CC3)n2)cc1

>  <vina_score>  (1) 
-8.354

>  <job_id>  (1) 
68738df253fb5dd8

$$$$
