
     RDKit          3D

 51 55  0  0  0  0  0  0  0  0999 V2000
   61.6100   84.0460   32.8660 C   0  0  0  0  0  0  0  0  0  0  0  0
   60.7900   83.0340   32.1480 C   0  0  0  0  0  0  0  0  0  0  0  0
   59.8000   82.3620   32.6920 N   0  0  0  0  0  0  0  0  0  0  0  0
   59.2510   81.4960   31.7600 C   0  0  0  0  0  0  0  0  0  0  0  0
   58.1850   80.6070   31.9860 C   0  0  0  0  0  0  0  0  0  0  0  0
   57.7300   79.7900   30.9430 C   0  0  0  0  0  0  0  0  0  0  0  0
   58.2990   79.8470   29.6630 C   0  0  0  0  0  0  0  0  0  0  0  0
   57.7980   78.9560   28.6770 N   0  0  0  0  0  0  0  0  0  0  0  0
   56.4840   78.9310   28.1960 C   0  0  0  0  0  0  0  0  0  0  0  0
   55.9500   79.9010   27.4130 C   0  0  0  0  0  0  0  0  0  0  0  0
   56.6850   81.1000   26.8950 C   0  0  0  0  0  0  0  0  0  0  0  0
   54.4890   79.7440   27.0020 C   0  0  0  0  0  0  0  0  0  0  0  0
   53.9050   80.6920   26.1810 N   0  0  0  0  0  0  0  0  0  0  0  0
   52.5870   80.5050   25.5660 C   0  0  1  0  0  0  0  0  0  0  0  0
   51.9160   81.8750   25.3800 C   0  0  0  0  0  0  0  0  0  0  0  0
   52.5540   82.6850   24.2500 C   0  0  0  0  0  0  0  0  0  0  0  0
   52.6800   81.8660   22.9650 C   0  0  0  0  0  0  0  0  0  0  0  0
   53.3930   80.6070   23.1790 N   0  0  0  0  0  0  0  0  0  0  0  0
   52.7150   79.7890   24.2020 C   0  0  0  0  0  0  0  0  0  0  0  0
   53.7470   78.7390   27.3970 N   0  0  0  0  0  0  0  0  0  0  0  0
   54.3080   77.8040   28.2060 C   0  0  0  0  0  0  0  0  0  0  0  0
   53.7710   76.6730   28.7730 C   0  0  0  0  0  0  0  0  0  0  0  0
   54.8110   76.1120   29.5190 C   0  0  0  0  0  0  0  0  0  0  0  0
   55.9370   76.8160   29.4440 N   0  0  0  0  0  0  0  0  0  0  0  0
   55.6400   77.8680   28.6170 N   0  0  0  0  0  0  0  0  0  0  0  0
   59.3810   80.7130   29.4410 C   0  0  0  0  0  0  0  0  0  0  0  0
   59.8330   81.5300   30.4940 C   0  0  0  0  0  0  0  0  0  0  0  0
   61.1140   82.6830   30.4990 S   0  0  0  0  0  0  0  0  0  0  0  0
   61.4970   83.9065   33.9512 H   0  0  0  0  0  0  0  0  0  0  0  0
   62.6676   83.9246   32.5889 H   0  0  0  0  0  0  0  0  0  0  0  0
   61.2719   85.0554   32.5889 H   0  0  0  0  0  0  0  0  0  0  0  0
   57.7107   80.5534   32.9771 H   0  0  0  0  0  0  0  0  0  0  0  0
   56.9060   79.0865   31.1330 H   0  0  0  0  0  0  0  0  0  0  0  0
   58.2070   78.0360   28.7990 H   0  0  0  0  0  0  0  0  0  0  0  0
   57.0522   81.6989   27.7414 H   0  0  0  0  0  0  0  0  0  0  0  0
   57.5369   80.7711   26.2817 H   0  0  0  0  0  0  0  0  0  0  0  0
   56.0054   81.7099   26.2817 H   0  0  0  0  0  0  0  0  0  0  0  0
   54.5190   81.3060   25.6650 H   0  0  0  0  0  0  0  0  0  0  0  0
   51.9710   79.8767   26.2262 H   0  0  0  0  0  0  0  0  0  0  0  0
   50.8524   81.7192   25.1468 H   0  0  0  0  0  0  0  0  0  0  0  0
   52.0435   82.4419   26.3140 H   0  0  0  0  0  0  0  0  0  0  0  0
   51.9303   83.5686   24.0493 H   0  0  0  0  0  0  0  0  0  0  0  0
   53.5650   82.9787   24.5687 H   0  0  0  0  0  0  0  0  0  0  0  0
   51.6714   81.6420   22.5875 H   0  0  0  0  0  0  0  0  0  0  0  0
   53.2559   82.4610   22.2409 H   0  0  0  0  0  0  0  0  0  0  0  0
   54.3450   80.7930   23.4910 H   0  0  0  0  0  0  0  0  0  0  0  0
   51.7059   79.5424   23.8403 H   0  0  0  0  0  0  0  0  0  0  0  0
   53.3277   78.8894   24.3607 H   0  0  0  0  0  0  0  0  0  0  0  0
   52.7449   76.2920   28.6633 H   0  0  0  0  0  0  0  0  0  0  0  0
   54.7093   75.1870   30.1056 H   0  0  0  0  0  0  0  0  0  0  0  0
   59.8696   80.7526   28.4563 H   0  0  0  0  0  0  0  0  0  0  0  0
  1  2  1  0
  2  3  2  0
  3  4  1  0
  4  5  2  0
  5  6  1  0
  6  7  2  0
  7  8  1  0
  8  9  1  0
  9 10  2  0
 10 11  1  0
 10 12  1  0
 12 13  1  0
 13 14  1  0
 14 15  1  0
 15 16  1  0
 16 17  1  0
 17 18  1  0
 18 19  1  0
 12 20  2  0
 20 21  1  0
 21 22  2  0
 22 23  1  0
 23 24  2  0
 24 25  1  0
  7 26  1  0
 26 27  2  0
 27 28  1  0
 28  2  1  0
 27  4  1  0
 25  9  1  0
 19 14  1  0
 25 21  1  0
  1 29  1  0
  1 30  1  0
  1 31  1  0
  5 32  1  0
  6 33  1  0
  8 34  1  0
 11 35  1  0
 11 36  1  0
 11 37  1  0
 13 38  1  0
 14 39  1  1
 15 40  1  0
 15 41  1  0
 16 42  1  0
 16 43  1  0
 17 44  1  0
 17 45  1  0
 18 46  1  0
 19 47  1  0
 19 48  1  0
 22 49  1  0
 23 50  1  0
 26 51  1  0
M  END
>  <meeko>  (1) 
{"is_sidechain": false}

>  <smiles>  (1) 
Cc1nc2ccc(Nc3c(C)c(N[C@H]4CCCNC4)nc4ccnn34)cc2s1

>  <vina_score>  (1) 
-9.089

>  <job_id>  (1) 
687dd7355709da75

$$$$
