
     RDKit          3D

 58 60  0  0  0  0  0  0  0  0999 V2000
   60.5340   84.0690   34.2920 C   0  0  0  0  0  0  0  0  0  0  0  0
   60.0350   83.0760   33.2890 C   0  0  0  0  0  0  0  0  0  0  0  0
   60.4490   82.9040   32.0170 C   0  0  0  0  0  0  0  0  0  0  0  0
   61.5850   83.6690   31.3610 C   0  0  0  0  0  0  0  0  0  0  0  0
   62.9610   83.3250   31.9280 C   0  0  0  0  0  0  0  0  0  0  0  0
   63.8390   82.6820   30.8810 C   0  0  0  0  0  0  0  0  0  0  0  0
   63.5930   81.3610   30.6460 N   0  0  0  0  0  0  0  0  0  0  0  0
   64.7160   83.2830   30.2710 O   0  0  0  0  0  0  0  0  0  0  0  0
   59.7780   81.8670   31.1950 C   0  0  0  0  0  0  0  0  0  0  0  0
   59.9130   81.8670   29.8010 C   0  0  0  0  0  0  0  0  0  0  0  0
   59.3090   80.8740   29.0170 C   0  0  0  0  0  0  0  0  0  0  0  0
   58.5520   79.8530   29.5970 C   0  0  0  0  0  0  0  0  0  0  0  0
   57.9270   78.8360   28.8720 N   0  0  0  0  0  0  0  0  0  0  0  0
   56.6090   78.4110   28.7350 C   0  0  0  0  0  0  0  0  0  0  0  0
   56.0260   77.5930   29.6240 N   0  0  0  0  0  0  0  0  0  0  0  0
   54.7430   77.2540   29.4080 C   0  0  0  0  0  0  0  0  0  0  0  0
   54.0160   77.6970   28.3360 C   0  0  0  0  0  0  0  0  0  0  0  0
   54.6930   78.5190   27.4680 C   0  0  0  0  0  0  0  0  0  0  0  0
   54.0480   79.0850   26.2910 C   0  0  0  0  0  0  0  0  0  0  0  0
   53.4620   78.4300   25.2250 C   0  0  0  0  0  0  0  0  0  0  0  0
   52.9360   79.3050   24.3240 N   0  0  0  0  0  0  0  0  0  0  0  0
   53.1690   80.5080   24.8090 C   0  0  0  0  0  0  0  0  0  0  0  0
   52.7170   81.7560   24.1400 C   0  0  0  0  0  0  0  0  0  0  0  0
   53.8860   80.4340   25.9910 N   0  0  0  0  0  0  0  0  0  0  0  0
   54.4160   81.5440   26.7860 C   0  0  0  0  0  0  0  0  0  0  0  0
   53.3110   82.4820   27.2700 C   0  0  0  0  0  0  0  0  0  0  0  0
   55.5570   82.3140   26.1140 C   0  0  0  0  0  0  0  0  0  0  0  0
   55.9760   78.8870   27.6510 N   0  0  0  0  0  0  0  0  0  0  0  0
   58.4160   79.8650   30.9930 C   0  0  0  0  0  0  0  0  0  0  0  0
   59.0180   80.8530   31.7820 C   0  0  0  0  0  0  0  0  0  0  0  0
   60.3442   83.6914   35.3076 H   0  0  0  0  0  0  0  0  0  0  0  0
   61.6147   84.2194   34.1527 H   0  0  0  0  0  0  0  0  0  0  0  0
   60.0097   85.0259   34.1527 H   0  0  0  0  0  0  0  0  0  0  0  0
   59.2332   82.4051   33.6310 H   0  0  0  0  0  0  0  0  0  0  0  0
   61.5843   83.4382   30.2855 H   0  0  0  0  0  0  0  0  0  0  0  0
   61.4119   84.7370   31.5596 H   0  0  0  0  0  0  0  0  0  0  0  0
   63.4434   84.2476   32.2832 H   0  0  0  0  0  0  0  0  0  0  0  0
   62.8281   82.6128   32.7557 H   0  0  0  0  0  0  0  0  0  0  0  0
   64.0940   80.9440   29.8730 H   0  0  0  0  0  0  0  0  0  0  0  0
   62.7110   80.9450   30.9160 H   0  0  0  0  0  0  0  0  0  0  0  0
   60.5019   82.6581   29.3139 H   0  0  0  0  0  0  0  0  0  0  0  0
   59.4335   80.8992   27.9244 H   0  0  0  0  0  0  0  0  0  0  0  0
   58.5120   78.2800   28.2660 H   0  0  0  0  0  0  0  0  0  0  0  0
   54.2518   76.5857   30.1305 H   0  0  0  0  0  0  0  0  0  0  0  0
   52.9642   77.4148   28.1806 H   0  0  0  0  0  0  0  0  0  0  0  0
   53.4249   77.3359   25.1173 H   0  0  0  0  0  0  0  0  0  0  0  0
   52.4465   82.5027   24.9011 H   0  0  0  0  0  0  0  0  0  0  0  0
   53.5294   82.1503   23.5119 H   0  0  0  0  0  0  0  0  0  0  0  0
   51.8405   81.5386   23.5119 H   0  0  0  0  0  0  0  0  0  0  0  0
   54.8676   81.0678   27.6688 H   0  0  0  0  0  0  0  0  0  0  0  0
   53.2963   82.4945   28.3698 H   0  0  0  0  0  0  0  0  0  0  0  0
   53.5019   83.4981   26.8943 H   0  0  0  0  0  0  0  0  0  0  0  0
   52.3394   82.1286   26.8943 H   0  0  0  0  0  0  0  0  0  0  0  0
   56.2073   82.7528   26.8851 H   0  0  0  0  0  0  0  0  0  0  0  0
   56.1440   81.6266   25.4872 H   0  0  0  0  0  0  0  0  0  0  0  0
   55.1391   83.1155   25.4872 H   0  0  0  0  0  0  0  0  0  0  0  0
   57.8214   79.0783   31.4804 H   0  0  0  0  0  0  0  0  0  0  0  0
   58.8911   80.8302   32.8744 H   0  0  0  0  0  0  0  0  0  0  0  0
  1  2  1  0
  2  3  2  3
  3  4  1  0
  4  5  1  0
  5  6  1  0
  6  7  1  0
  6  8  2  0
  3  9  1  0
  9 10  1  0
 10 11  2  0
 11 12  1  0
 12 13  1  0
 13 14  1  0
 14 15  2  0
 15 16  1  0
 16 17  2  0
 17 18  1  0
 18 19  1  0
 19 20  2  0
 20 21  1  0
 21 22  2  0
 22 23  1  0
 22 24  1  0
 24 25  1  0
 25 26  1  0
 25 27  1  0
 18 28  2  0
 12 29  2  0
 29 30  1  0
 30  9  2  0
 28 14  1  0
 24 19  1  0
  1 31  1  0
  1 32  1  0
  1 33  1  0
  2 34  1  0
  4 35  1  0
  4 36  1  0
  5 37  1  0
  5 38  1  0
  7 39  1  0
  7 40  1  0
 10 41  1  0
 11 42  1  0
 13 43  1  0
 16 44  1  0
 17 45  1  0
 20 46  1  0
 23 47  1  0
 23 48  1  0
 23 49  1  0
 25 50  1  0
 26 51  1  0
 26 52  1  0
 26 53  1  0
 27 54  1  0
 27 55  1  0
 27 56  1  0
 29 57  1  0
 30 58  1  0
M  END
>  <meeko>  (1) 
{"is_sidechain": false}

>  <smiles>  (1) 
CC=C(CCC(N)=O)c1ccc(Nc2nccc(-c3cnc(C)n3C(C)C)n2)cc1

>  <vina_score>  (1) 
-8.818

>  <job_id>  (1) 
68860522be099e6e

$$$$
