
     RDKit          3D

 54 57  0  0  0  0  0  0  0  0999 V2000
   62.4700   82.3310   33.5370 O   0  0  0  0  0  0  0  0  0  0  0  0
   62.3560   82.5050   32.3160 C   0  0  0  0  0  0  0  0  0  0  0  0
   63.4090   83.2980   31.4940 C   0  0  0  0  0  0  0  0  0  0  0  0
   64.3920   84.2160   32.2800 C   0  0  0  0  0  0  0  0  0  0  0  0
   65.4750   83.8220   31.2600 C   0  0  0  0  0  0  0  0  0  0  0  0
   64.6760   82.5290   31.0200 C   0  0  0  0  0  0  0  0  0  0  0  0
   61.2580   81.9810   31.6250 N   0  0  0  0  0  0  0  0  0  0  0  0
   60.1510   81.4350   32.4210 C   0  0  0  0  0  0  0  0  0  0  0  0
   59.3100   80.3930   31.6620 C   0  0  0  0  0  0  0  0  0  0  0  0
   58.9010   80.9160   30.3350 N   0  0  0  0  0  0  0  0  0  0  0  0
   57.9140   80.1340   29.7140 C   0  0  0  0  0  0  0  0  0  0  0  0
   57.2520   79.1460   30.4550 C   0  0  0  0  0  0  0  0  0  0  0  0
   56.2500   78.3380   29.8920 C   0  0  0  0  0  0  0  0  0  0  0  0
   55.8700   78.4800   28.5550 C   0  0  0  0  0  0  0  0  0  0  0  0
   54.8740   77.7030   27.9380 N   0  0  0  0  0  0  0  0  0  0  0  0
   54.3040   76.6760   28.8330 C   0  0  0  0  0  0  0  0  0  0  0  0
   53.5170   75.6550   28.0200 C   0  0  0  0  0  0  0  0  0  0  0  0
   52.4620   76.3410   27.1600 C   0  0  0  0  0  0  0  0  0  0  0  0
   51.8100   75.3570   26.3610 O   0  0  0  0  0  0  0  0  0  0  0  0
   53.1020   77.4010   26.2710 C   0  0  0  0  0  0  0  0  0  0  0  0
   53.8810   78.4060   27.1130 C   0  0  0  0  0  0  0  0  0  0  0  0
   56.5160   79.4830   27.8200 C   0  0  0  0  0  0  0  0  0  0  0  0
   57.5130   80.2930   28.3850 C   0  0  0  0  0  0  0  0  0  0  0  0
   60.0600   81.3330   29.5210 C   0  0  0  0  0  0  0  0  0  0  0  0
   60.8900   82.3950   30.2650 C   0  0  0  0  0  0  0  0  0  0  0  0
   62.6666   83.6998   30.7887 H   0  0  0  0  0  0  0  0  0  0  0  0
   64.1250   85.2831   32.2758 H   0  0  0  0  0  0  0  0  0  0  0  0
   64.5491   84.1006   33.3626 H   0  0  0  0  0  0  0  0  0  0  0  0
   65.5469   84.4865   30.3864 H   0  0  0  0  0  0  0  0  0  0  0  0
   66.5424   83.8037   31.5250 H   0  0  0  0  0  0  0  0  0  0  0  0
   64.6451   82.1977   29.9715 H   0  0  0  0  0  0  0  0  0  0  0  0
   64.9748   81.5734   31.4755 H   0  0  0  0  0  0  0  0  0  0  0  0
   60.5694   80.9582   33.3196 H   0  0  0  0  0  0  0  0  0  0  0  0
   59.4838   82.2737   32.6687 H   0  0  0  0  0  0  0  0  0  0  0  0
   59.9069   79.4797   31.5220 H   0  0  0  0  0  0  0  0  0  0  0  0
   58.4065   80.1718   32.2491 H   0  0  0  0  0  0  0  0  0  0  0  0
   57.5253   78.9985   31.5102 H   0  0  0  0  0  0  0  0  0  0  0  0
   55.7552   77.5790   30.5158 H   0  0  0  0  0  0  0  0  0  0  0  0
   55.1188   76.1659   29.3677 H   0  0  0  0  0  0  0  0  0  0  0  0
   53.6297   77.1600   29.5548 H   0  0  0  0  0  0  0  0  0  0  0  0
   54.2097   75.1027   27.3680 H   0  0  0  0  0  0  0  0  0  0  0  0
   53.0117   74.9672   28.7140 H   0  0  0  0  0  0  0  0  0  0  0  0
   51.7280   76.8400   27.8098 H   0  0  0  0  0  0  0  0  0  0  0  0
   52.3240   75.2500   25.5430 H   0  0  0  0  0  0  0  0  0  0  0  0
   53.7881   76.9133   25.5630 H   0  0  0  0  0  0  0  0  0  0  0  0
   52.3090   77.9334   25.7255 H   0  0  0  0  0  0  0  0  0  0  0  0
   54.3953   79.1169   26.4496 H   0  0  0  0  0  0  0  0  0  0  0  0
   53.1833   78.9478   27.7685 H   0  0  0  0  0  0  0  0  0  0  0  0
   56.2331   79.6401   26.7687 H   0  0  0  0  0  0  0  0  0  0  0  0
   57.9890   81.0697   27.7684 H   0  0  0  0  0  0  0  0  0  0  0  0
   60.6930   80.4567   29.3174 H   0  0  0  0  0  0  0  0  0  0  0  0
   59.6942   81.7652   28.5779 H   0  0  0  0  0  0  0  0  0  0  0  0
   61.8110   82.5843   29.6941 H   0  0  0  0  0  0  0  0  0  0  0  0
   60.2695   83.2992   30.3510 H   0  0  0  0  0  0  0  0  0  0  0  0
  1  2  2  0
  2  3  1  0
  3  4  1  0
  4  5  1  0
  5  6  1  0
  2  7  1  0
  7  8  1  0
  8  9  1  0
  9 10  1  0
 10 11  1  0
 11 12  1  0
 12 13  2  0
 13 14  1  0
 14 15  1  0
 15 16  1  0
 16 17  1  0
 17 18  1  0
 18 19  1  0
 18 20  1  0
 20 21  1  0
 14 22  2  0
 22 23  1  0
 10 24  1  0
 24 25  1  0
  6  3  1  0
 25  7  1  0
 23 11  2  0
 21 15  1  0
  3 26  1  0
  4 27  1  0
  4 28  1  0
  5 29  1  0
  5 30  1  0
  6 31  1  0
  6 32  1  0
  8 33  1  0
  8 34  1  0
  9 35  1  0
  9 36  1  0
 12 37  1  0
 13 38  1  0
 16 39  1  0
 16 40  1  0
 17 41  1  0
 17 42  1  0
 18 43  1  0
 19 44  1  0
 20 45  1  0
 20 46  1  0
 21 47  1  0
 21 48  1  0
 22 49  1  0
 23 50  1  0
 24 51  1  0
 24 52  1  0
 25 53  1  0
 25 54  1  0
M  END
>  <meeko>  (1) 
{"is_sidechain": false}

>  <smiles>  (1) 
O=C(C1CCC1)N1CCN(c2ccc(N3CCC(O)CC3)cc2)CC1

>  <vina_score>  (1) 
-7.033

>  <job_id>  (1) 
690f4e9edc9d8cf8

$$$$
