
     RDKit          3D

 32 33  0  0  0  0  0  0  0  0999 V2000
   56.0850   76.9590   29.1460 O   0  0  0  0  0  0  0  0  0  0  0  0
   55.6920   78.0260   28.6840 C   0  0  0  0  0  0  0  0  0  0  0  0
   54.2160   78.3570   28.5470 C   0  0  0  0  0  0  0  0  0  0  0  0
   53.8800   79.0710   27.2590 C   0  0  0  0  0  0  0  0  0  0  0  0
   53.6850   80.4620   27.2520 C   0  0  0  0  0  0  0  0  0  0  0  0
   53.3860   81.1270   26.0620 C   0  0  0  0  0  0  0  0  0  0  0  0
   53.2790   80.4020   24.8810 C   0  0  0  0  0  0  0  0  0  0  0  0
   52.9950   81.0410   23.7390 F   0  0  0  0  0  0  0  0  0  0  0  0
   53.4640   79.0250   24.8680 C   0  0  0  0  0  0  0  0  0  0  0  0
   53.7630   78.3570   26.0550 C   0  0  0  0  0  0  0  0  0  0  0  0
   56.5430   79.0030   28.2150 N   0  0  0  0  0  0  0  0  0  0  0  0
   57.9690   78.8670   28.3950 C   0  0  0  0  0  0  0  0  0  0  0  0
   58.4850   79.9230   29.3350 C   0  0  0  0  0  0  0  0  0  0  0  0
   59.3100   80.9590   28.8650 C   0  0  0  0  0  0  0  0  0  0  0  0
   59.8100   81.9220   29.7470 C   0  0  0  0  0  0  0  0  0  0  0  0
   59.4950   81.8460   31.0990 C   0  0  0  0  0  0  0  0  0  0  0  0
   59.9800   82.7690   31.9400 F   0  0  0  0  0  0  0  0  0  0  0  0
   58.6880   80.8190   31.5750 C   0  0  0  0  0  0  0  0  0  0  0  0
   58.3930   80.7440   32.8800 F   0  0  0  0  0  0  0  0  0  0  0  0
   58.1850   79.8570   30.7050 C   0  0  0  0  0  0  0  0  0  0  0  0
   53.6429   77.4189   28.5857 H   0  0  0  0  0  0  0  0  0  0  0  0
   53.9567   79.0360   29.3727 H   0  0  0  0  0  0  0  0  0  0  0  0
   53.7684   81.0305   28.1900 H   0  0  0  0  0  0  0  0  0  0  0  0
   53.2361   82.2167   26.0588 H   0  0  0  0  0  0  0  0  0  0  0  0
   53.3750   78.4644   23.9258 H   0  0  0  0  0  0  0  0  0  0  0  0
   53.9078   77.2666   26.0484 H   0  0  0  0  0  0  0  0  0  0  0  0
   56.1710   79.9390   28.1130 H   0  0  0  0  0  0  0  0  0  0  0  0
   58.1880   77.8729   28.8120 H   0  0  0  0  0  0  0  0  0  0  0  0
   58.4636   78.9866   27.4198 H   0  0  0  0  0  0  0  0  0  0  0  0
   59.5641   81.0127   27.7961 H   0  0  0  0  0  0  0  0  0  0  0  0
   60.4492   82.7354   29.3731 H   0  0  0  0  0  0  0  0  0  0  0  0
   57.5519   79.0443   31.0906 H   0  0  0  0  0  0  0  0  0  0  0  0
  1  2  2  0
  2  3  1  0
  3  4  1  0
  4  5  1  0
  5  6  2  0
  6  7  1  0
  7  8  1  0
  7  9  2  0
  9 10  1  0
  2 11  1  0
 11 12  1  0
 12 13  1  0
 13 14  1  0
 14 15  2  0
 15 16  1  0
 16 17  1  0
 16 18  2  0
 18 19  1  0
 18 20  1  0
 10  4  2  0
 20 13  2  0
  3 21  1  0
  3 22  1  0
  5 23  1  0
  6 24  1  0
  9 25  1  0
 10 26  1  0
 11 27  1  0
 12 28  1  0
 12 29  1  0
 14 30  1  0
 15 31  1  0
 20 32  1  0
M  END
>  <meeko>  (1) 
{"is_sidechain": false}

>  <smiles>  (1) 
O=C(Cc1ccc(F)cc1)NCc1ccc(F)c(F)c1

>  <vina_score>  (1) 
-7.825

>  <job_id>  (1) 
6947fd5d347e2388

$$$$
