
     RDKit          3D

 38 40  0  0  0  0  0  0  0  0999 V2000
   58.3410   85.5990   32.0600 C   0  0  0  0  0  0  0  0  0  0  0  0
   58.0710   84.2970   32.5580 O   0  0  0  0  0  0  0  0  0  0  0  0
   58.2920   83.2320   31.7110 C   0  0  0  0  0  0  0  0  0  0  0  0
   58.5590   83.2890   30.3960 C   0  0  0  0  0  0  0  0  0  0  0  0
   58.7740   82.2090   29.5730 O   0  0  0  0  0  0  0  0  0  0  0  0
   58.7460   80.9380   30.1220 C   0  0  0  0  0  0  0  0  0  0  0  0
   59.0140   79.8280   29.1450 C   0  0  0  0  0  0  0  0  0  0  0  0
   57.7690   79.5190   28.4350 N   0  0  0  0  0  0  0  0  0  0  0  0
   56.9840   78.7340   29.0900 C   0  0  0  0  0  0  0  0  0  0  0  0
   55.6390   78.2710   28.6340 C   0  0  0  0  0  0  0  0  0  0  0  0
   55.2030   76.9320   29.1460 C   0  0  0  0  0  0  0  0  0  0  0  0
   55.9120   76.2660   29.8940 O   0  0  0  0  0  0  0  0  0  0  0  0
   53.9820   76.4850   28.7400 N   0  0  0  0  0  0  0  0  0  0  0  0
   53.1470   77.1570   27.9090 C   0  0  0  0  0  0  0  0  0  0  0  0
   51.9890   76.4680   27.6810 O   0  0  0  0  0  0  0  0  0  0  0  0
   53.4940   78.3600   27.4040 C   0  0  0  0  0  0  0  0  0  0  0  0
   52.6190   79.1370   26.5200 C   0  0  0  0  0  0  0  0  0  0  0  0
   53.0290   80.3130   26.0170 C   0  0  0  0  0  0  0  0  0  0  0  0
   54.3410   80.8580   26.3150 C   0  0  0  0  0  0  0  0  0  0  0  0
   54.7980   82.4810   25.5060 Br  0  0  0  0  0  0  0  0  0  0  0  0
   55.1900   80.2170   27.1400 C   0  0  0  0  0  0  0  0  0  0  0  0
   54.8280   78.9370   27.7730 C   0  0  0  0  0  0  0  0  0  0  0  0
   58.4820   80.7190   31.4170 C   0  0  0  0  0  0  0  0  0  0  0  0
   58.2260   81.8640   32.3120 C   0  0  0  0  0  0  0  0  0  0  0  0
   57.9690   81.6670   33.4960 O   0  0  0  0  0  0  0  0  0  0  0  0
   58.4846   86.2914   32.9026 H   0  0  0  0  0  0  0  0  0  0  0  0
   59.2532   85.5748   31.4458 H   0  0  0  0  0  0  0  0  0  0  0  0
   57.4944   85.9395   31.4458 H   0  0  0  0  0  0  0  0  0  0  0  0
   58.6101   84.2875   29.9372 H   0  0  0  0  0  0  0  0  0  0  0  0
   59.7823   80.1457   28.4247 H   0  0  0  0  0  0  0  0  0  0  0  0
   59.3734   78.9360   29.6790 H   0  0  0  0  0  0  0  0  0  0  0  0
   57.3346   78.3742   30.0686 H   0  0  0  0  0  0  0  0  0  0  0  0
   53.6800   75.5850   29.0900 H   0  0  0  0  0  0  0  0  0  0  0  0
   51.2620   76.8830   28.1670 H   0  0  0  0  0  0  0  0  0  0  0  0
   51.6194   78.7538   26.2670 H   0  0  0  0  0  0  0  0  0  0  0  0
   52.3515   80.8790   25.3608 H   0  0  0  0  0  0  0  0  0  0  0  0
   56.1760   80.6589   27.3460 H   0  0  0  0  0  0  0  0  0  0  0  0
   58.4562   79.6922   31.8107 H   0  0  0  0  0  0  0  0  0  0  0  0
  1  2  1  0
  2  3  1  0
  3  4  2  0
  4  5  1  0
  5  6  1  0
  6  7  1  0
  7  8  1  0
  8  9  2  3
  9 10  1  0
 10 11  1  0
 11 12  2  0
 11 13  1  0
 13 14  1  0
 14 15  1  0
 14 16  2  0
 16 17  1  0
 17 18  2  0
 18 19  1  0
 19 20  1  0
 19 21  2  0
 21 22  1  0
  6 23  2  0
 23 24  1  0
 24 25  2  0
 24  3  1  0
 22 10  2  0
 22 16  1  0
  1 26  1  0
  1 27  1  0
  1 28  1  0
  4 29  1  0
  7 30  1  0
  7 31  1  0
  9 32  1  0
 13 33  1  0
 15 34  1  0
 17 35  1  0
 18 36  1  0
 21 37  1  0
 23 38  1  0
M  END
>  <meeko>  (1) 
{"is_sidechain": false}

>  <smiles>  (1) 
COc1coc(CN=Cc2c(=O)[nH]c(O)c3ccc(Br)cc23)cc1=O

>  <vina_score>  (1) 
-8.051

>  <job_id>  (1) 
69769789d8303638

$$$$
