
     RDKit          3D

 32 33  0  0  0  0  0  0  0  0999 V2000
   59.6850   83.2680   34.0200 N   0  0  0  0  0  0  0  0  0  0  0  0
   60.5340   83.4640   32.5860 S   0  0  0  0  0  0  0  0  0  0  0  0
   60.1540   84.7600   32.0720 O   0  0  0  0  0  0  0  0  0  0  0  0
   61.9050   83.1220   32.8870 O   0  0  0  0  0  0  0  0  0  0  0  0
   59.8280   82.2030   31.5680 C   0  0  0  0  0  0  0  0  0  0  0  0
   58.9930   81.2410   32.1350 C   0  0  0  0  0  0  0  0  0  0  0  0
   58.4590   80.2310   31.3280 C   0  0  0  0  0  0  0  0  0  0  0  0
   58.7530   80.1650   29.9560 C   0  0  0  0  0  0  0  0  0  0  0  0
   58.2230   79.1070   29.1990 N   0  0  0  0  0  0  0  0  0  0  0  0
   56.9190   78.8300   28.7530 C   0  0  0  0  0  0  0  0  0  0  0  0
   56.1120   77.8410   29.3220 C   0  0  0  0  0  0  0  0  0  0  0  0
   54.8330   77.5720   28.8200 C   0  0  0  0  0  0  0  0  0  0  0  0
   54.3290   78.2910   27.7290 C   0  0  0  0  0  0  0  0  0  0  0  0
   52.9610   77.9890   27.1710 C   0  0  0  0  0  0  0  0  0  0  0  0
   52.1850   77.2600   28.0210 F   0  0  0  0  0  0  0  0  0  0  0  0
   53.0020   77.2800   26.0070 F   0  0  0  0  0  0  0  0  0  0  0  0
   52.2530   79.1180   26.8950 F   0  0  0  0  0  0  0  0  0  0  0  0
   55.1390   79.2740   27.1450 C   0  0  0  0  0  0  0  0  0  0  0  0
   56.4160   79.5370   27.6520 C   0  0  0  0  0  0  0  0  0  0  0  0
   59.6110   81.1330   29.4150 C   0  0  0  0  0  0  0  0  0  0  0  0
   60.1490   82.1490   30.2120 C   0  0  0  0  0  0  0  0  0  0  0  0
   60.2890   83.4870   34.8130 H   0  0  0  0  0  0  0  0  0  0  0  0
   59.2800   82.3320   34.0580 H   0  0  0  0  0  0  0  0  0  0  0  0
   58.7561   81.2761   33.2086 H   0  0  0  0  0  0  0  0  0  0  0  0
   57.7971   79.4750   31.7757 H   0  0  0  0  0  0  0  0  0  0  0  0
   58.9120   78.4260   28.9010 H   0  0  0  0  0  0  0  0  0  0  0  0
   56.4883   77.2637   30.1794 H   0  0  0  0  0  0  0  0  0  0  0  0
   54.2182   76.7885   29.2870 H   0  0  0  0  0  0  0  0  0  0  0  0
   54.7675   79.8438   26.2805 H   0  0  0  0  0  0  0  0  0  0  0  0
   57.0363   80.3122   27.1784 H   0  0  0  0  0  0  0  0  0  0  0  0
   59.8654   81.0928   28.3456 H   0  0  0  0  0  0  0  0  0  0  0  0
   60.8210   82.9005   29.7719 H   0  0  0  0  0  0  0  0  0  0  0  0
  1  2  1  0
  2  3  2  0
  2  4  2  0
  2  5  1  0
  5  6  1  0
  6  7  2  0
  7  8  1  0
  8  9  1  0
  9 10  1  0
 10 11  1  0
 11 12  2  0
 12 13  1  0
 13 14  1  0
 14 15  1  0
 14 16  1  0
 14 17  1  0
 13 18  2  0
 18 19  1  0
  8 20  2  0
 20 21  1  0
 21  5  2  0
 19 10  2  0
  1 22  1  0
  1 23  1  0
  6 24  1  0
  7 25  1  0
  9 26  1  0
 11 27  1  0
 12 28  1  0
 18 29  1  0
 19 30  1  0
 20 31  1  0
 21 32  1  0
M  END
>  <meeko>  (1) 
{"is_sidechain": false}

>  <smiles>  (1) 
NS(=O)(=O)c1ccc(Nc2ccc(C(F)(F)F)cc2)cc1

>  <vina_score>  (1) 
-8.010

>  <job_id>  (1) 
6a8ca084b5c9a3c7

$$$$
