
     RDKit          3D

 45 47  0  0  0  0  0  0  0  0999 V2000
   59.6610   80.7060   28.9000 O   0  0  0  0  0  0  0  0  0  0  0  0
   58.8770   79.9620   29.4860 C   0  0  0  0  0  0  0  0  0  0  0  0
   58.2180   78.8100   28.7320 C   0  0  0  0  0  0  0  0  0  0  0  0
   56.8580   79.1150   28.1460 C   0  0  0  0  0  0  0  0  0  0  0  0
   56.6850   80.1910   27.2670 C   0  0  0  0  0  0  0  0  0  0  0  0
   55.4340   80.4530   26.7040 C   0  0  0  0  0  0  0  0  0  0  0  0
   54.3330   79.6400   27.0070 C   0  0  0  0  0  0  0  0  0  0  0  0
   52.9690   79.9360   26.4130 C   0  0  0  0  0  0  0  0  0  0  0  0
   53.0360   80.6810   25.1490 N   0  0  0  0  0  0  0  0  0  0  0  0
   52.0190   81.7510   25.0480 C   0  0  0  0  0  0  0  0  0  0  0  0
   50.7960   81.3570   24.2030 C   0  0  0  0  0  0  0  0  0  0  0  0
   51.1290   80.9900   22.8570 O   0  0  0  0  0  0  0  0  0  0  0  0
   52.4600   80.4710   22.7290 C   0  0  0  0  0  0  0  0  0  0  0  0
   52.9340   79.7550   24.0000 C   0  0  0  0  0  0  0  0  0  0  0  0
   54.5060   78.5730   27.8980 C   0  0  0  0  0  0  0  0  0  0  0  0
   55.7550   78.3110   28.4640 C   0  0  0  0  0  0  0  0  0  0  0  0
   58.5600   80.0180   30.8330 N   0  0  0  0  0  0  0  0  0  0  0  0
   59.0330   80.9340   31.7950 C   0  0  0  0  0  0  0  0  0  0  0  0
   59.9260   80.6070   32.8180 C   0  0  0  0  0  0  0  0  0  0  0  0
   60.3460   81.5770   33.7360 C   0  0  0  0  0  0  0  0  0  0  0  0
   59.8730   82.8830   33.6400 C   0  0  0  0  0  0  0  0  0  0  0  0
   58.9810   83.2140   32.6240 C   0  0  0  0  0  0  0  0  0  0  0  0
   58.3910   84.8260   32.4970 Cl  0  0  0  0  0  0  0  0  0  0  0  0
   58.5610   82.2510   31.7060 C   0  0  0  0  0  0  0  0  0  0  0  0
   58.8853   78.5175   27.9078 H   0  0  0  0  0  0  0  0  0  0  0  0
   58.0578   78.0134   29.4735 H   0  0  0  0  0  0  0  0  0  0  0  0
   57.5412   80.8351   27.0179 H   0  0  0  0  0  0  0  0  0  0  0  0
   55.3117   81.3038   26.0176 H   0  0  0  0  0  0  0  0  0  0  0  0
   52.4535   78.9818   26.2292 H   0  0  0  0  0  0  0  0  0  0  0  0
   52.4287   80.5661   27.1348 H   0  0  0  0  0  0  0  0  0  0  0  0
   51.6752   82.0015   26.0624 H   0  0  0  0  0  0  0  0  0  0  0  0
   52.4970   82.6055   24.5466 H   0  0  0  0  0  0  0  0  0  0  0  0
   50.2997   80.5019   24.6851 H   0  0  0  0  0  0  0  0  0  0  0  0
   50.1416   82.2394   24.1470 H   0  0  0  0  0  0  0  0  0  0  0  0
   52.4817   79.7570   21.8925 H   0  0  0  0  0  0  0  0  0  0  0  0
   53.1354   81.3209   22.5516 H   0  0  0  0  0  0  0  0  0  0  0  0
   52.2171   78.9583   24.2478 H   0  0  0  0  0  0  0  0  0  0  0  0
   53.9346   79.3415   23.8054 H   0  0  0  0  0  0  0  0  0  0  0  0
   53.6480   77.9343   28.1546 H   0  0  0  0  0  0  0  0  0  0  0  0
   55.8739   77.4698   29.1627 H   0  0  0  0  0  0  0  0  0  0  0  0
   57.8630   79.3590   31.1600 H   0  0  0  0  0  0  0  0  0  0  0  0
   60.3030   79.5771   32.9032 H   0  0  0  0  0  0  0  0  0  0  0  0
   61.0516   81.3066   34.5353 H   0  0  0  0  0  0  0  0  0  0  0  0
   60.2013   83.6464   34.3607 H   0  0  0  0  0  0  0  0  0  0  0  0
   57.8557   82.5266   30.9081 H   0  0  0  0  0  0  0  0  0  0  0  0
  1  2  2  0
  2  3  1  0
  3  4  1  0
  4  5  1  0
  5  6  2  0
  6  7  1  0
  7  8  1  0
  8  9  1  0
  9 10  1  0
 10 11  1  0
 11 12  1  0
 12 13  1  0
 13 14  1  0
  7 15  2  0
 15 16  1  0
  2 17  1  0
 17 18  1  0
 18 19  2  0
 19 20  1  0
 20 21  2  0
 21 22  1  0
 22 23  1  0
 22 24  2  0
 16  4  2  0
 24 18  1  0
 14  9  1  0
  3 25  1  0
  3 26  1  0
  5 27  1  0
  6 28  1  0
  8 29  1  0
  8 30  1  0
 10 31  1  0
 10 32  1  0
 11 33  1  0
 11 34  1  0
 13 35  1  0
 13 36  1  0
 14 37  1  0
 14 38  1  0
 15 39  1  0
 16 40  1  0
 17 41  1  0
 19 42  1  0
 20 43  1  0
 21 44  1  0
 24 45  1  0
M  END
>  <meeko>  (1) 
{"is_sidechain": false}

>  <smiles>  (1) 
O=C(Cc1ccc(CN2CCOCC2)cc1)Nc1cccc(Cl)c1

>  <vina_score>  (1) 
-7.684

>  <job_id>  (1) 
6b4c2852b92640fa

$$$$
