
     RDKit          3D

 38 39  0  0  0  0  0  0  0  0999 V2000
   52.4210   75.8710   27.6450 C   0  0  0  0  0  0  0  0  0  0  0  0
   52.7000   77.2370   28.0480 N   0  0  0  0  0  0  0  0  0  0  0  0
   54.0240   77.6370   28.2600 C   0  0  0  0  0  0  0  0  0  0  0  0
   54.9340   76.9200   29.0460 C   0  0  0  0  0  0  0  0  0  0  0  0
   56.2670   77.3290   29.1660 C   0  0  0  0  0  0  0  0  0  0  0  0
   56.7140   78.4580   28.4850 C   0  0  0  0  0  0  0  0  0  0  0  0
   58.0440   78.7840   28.6200 O   0  0  0  0  0  0  0  0  0  0  0  0
   58.3520   79.8680   29.4110 C   0  0  0  0  0  0  0  0  0  0  0  0
   58.9070   80.9800   28.7730 C   0  0  0  0  0  0  0  0  0  0  0  0
   59.2720   82.1000   29.5200 C   0  0  0  0  0  0  0  0  0  0  0  0
   59.1080   82.0890   30.9110 C   0  0  0  0  0  0  0  0  0  0  0  0
   59.4610   83.2780   31.7220 C   0  0  0  0  0  0  0  0  0  0  0  0
   58.5460   84.0350   32.0400 O   0  0  0  0  0  0  0  0  0  0  0  0
   60.7950   83.4920   32.0660 N   0  0  0  0  0  0  0  0  0  0  0  0
   61.8210   82.4580   32.0760 C   0  0  0  0  0  0  0  0  0  0  0  0
   61.1370   84.7370   32.7310 C   0  0  0  0  0  0  0  0  0  0  0  0
   58.5490   80.9770   31.5500 C   0  0  0  0  0  0  0  0  0  0  0  0
   58.1850   79.8570   30.8000 C   0  0  0  0  0  0  0  0  0  0  0  0
   55.8440   79.1490   27.6450 C   0  0  0  0  0  0  0  0  0  0  0  0
   54.5140   78.7330   27.5330 C   0  0  0  0  0  0  0  0  0  0  0  0
   52.2929   75.2437   28.5395 H   0  0  0  0  0  0  0  0  0  0  0  0
   51.4993   75.8467   27.0450 H   0  0  0  0  0  0  0  0  0  0  0  0
   53.2593   75.4872   27.0450 H   0  0  0  0  0  0  0  0  0  0  0  0
   52.0870   77.5590   28.7950 H   0  0  0  0  0  0  0  0  0  0  0  0
   54.5953   76.0192   29.5787 H   0  0  0  0  0  0  0  0  0  0  0  0
   56.9622   76.7579   29.7989 H   0  0  0  0  0  0  0  0  0  0  0  0
   59.0559   80.9724   27.6832 H   0  0  0  0  0  0  0  0  0  0  0  0
   59.6865   82.9874   29.0192 H   0  0  0  0  0  0  0  0  0  0  0  0
   62.0742   82.2028   33.1156 H   0  0  0  0  0  0  0  0  0  0  0  0
   61.4442   81.5626   31.5600 H   0  0  0  0  0  0  0  0  0  0  0  0
   62.7193   82.8278   31.5600 H   0  0  0  0  0  0  0  0  0  0  0  0
   61.0976   84.5934   33.8209 H   0  0  0  0  0  0  0  0  0  0  0  0
   62.1523   85.0424   32.4379 H   0  0  0  0  0  0  0  0  0  0  0  0
   60.4202   85.5182   32.4379 H   0  0  0  0  0  0  0  0  0  0  0  0
   58.3968   80.9851   32.6394 H   0  0  0  0  0  0  0  0  0  0  0  0
   57.7686   78.9696   31.2992 H   0  0  0  0  0  0  0  0  0  0  0  0
   56.2016   80.0176   27.0726 H   0  0  0  0  0  0  0  0  0  0  0  0
   53.8358   79.2773   26.8594 H   0  0  0  0  0  0  0  0  0  0  0  0
  1  2  1  0
  2  3  1  0
  3  4  1  0
  4  5  2  0
  5  6  1  0
  6  7  1  0
  7  8  1  0
  8  9  1  0
  9 10  2  0
 10 11  1  0
 11 12  1  0
 12 13  2  0
 12 14  1  0
 14 15  1  0
 14 16  1  0
 11 17  2  0
 17 18  1  0
  6 19  2  0
 19 20  1  0
 20  3  2  0
 18  8  2  0
  1 21  1  0
  1 22  1  0
  1 23  1  0
  2 24  1  0
  4 25  1  0
  5 26  1  0
  9 27  1  0
 10 28  1  0
 15 29  1  0
 15 30  1  0
 15 31  1  0
 16 32  1  0
 16 33  1  0
 16 34  1  0
 17 35  1  0
 18 36  1  0
 19 37  1  0
 20 38  1  0
M  END
>  <meeko>  (1) 
{"is_sidechain": false}

>  <smiles>  (1) 
CNc1ccc(Oc2ccc(C(=O)N(C)C)cc2)cc1

>  <vina_score>  (1) 
-7.109

>  <job_id>  (1) 
6b67980acea0af7f

$$$$
