
     RDKit          3D

 56 58  0  0  0  0  0  0  0  0999 V2000
   66.2240   82.6260   30.8420 C   0  0  0  0  0  0  0  0  0  0  0  0
   64.7150   82.6480   31.0230 C   0  0  1  0  0  0  0  0  0  0  0  0
   64.2120   81.3590   30.6450 O   0  0  0  0  0  0  0  0  0  0  0  0
   64.2640   82.9570   32.4780 C   0  0  1  0  0  0  0  0  0  0  0  0
   65.2680   83.8470   33.2100 C   0  0  0  0  0  0  0  0  0  0  0  0
   62.9480   83.6270   32.3890 N   0  0  0  0  0  0  0  0  0  0  0  0
   61.7990   82.8150   32.4520 C   0  0  0  0  0  0  0  0  0  0  0  0
   61.4430   82.0970   31.3690 N   0  0  0  0  0  0  0  0  0  0  0  0
   60.3160   81.3610   31.4130 C   0  0  0  0  0  0  0  0  0  0  0  0
   60.0390   80.6520   30.2490 N   0  0  0  0  0  0  0  0  0  0  0  0
   58.9420   80.5920   29.3830 C   0  0  0  0  0  0  0  0  0  0  0  0
   58.3390   81.7920   28.9810 C   0  0  0  0  0  0  0  0  0  0  0  0
   57.2410   81.8060   28.1110 C   0  0  0  0  0  0  0  0  0  0  0  0
   56.7060   80.6130   27.6080 C   0  0  0  0  0  0  0  0  0  0  0  0
   55.5510   80.6190   26.6940 C   0  0  0  0  0  0  0  0  0  0  0  0
   55.2200   81.7690   25.9560 C   0  0  0  0  0  0  0  0  0  0  0  0
   54.1250   81.7830   25.0880 C   0  0  0  0  0  0  0  0  0  0  0  0
   53.3500   80.6320   24.9450 C   0  0  0  0  0  0  0  0  0  0  0  0
   51.9410   80.6240   23.8570 S   0  0  0  0  0  0  0  0  0  0  0  0
   51.9850   79.3550   23.1540 O   0  0  0  0  0  0  0  0  0  0  0  0
   50.7730   80.9820   24.6360 O   0  0  0  0  0  0  0  0  0  0  0  0
   52.2640   81.7800   22.7940 O   0  0  0  0  0  0  0  0  0  0  0  0
   51.3800   81.9830   21.4810 S   0  0  0  0  0  0  0  0  0  0  0  0
   49.8800   81.3570   21.9170 N   0  0  0  0  0  0  0  0  0  0  0  0
   51.8390   81.1060   20.4310 O   0  0  0  0  0  0  0  0  0  0  0  0
   51.1220   83.3870   21.2740 O   0  0  0  0  0  0  0  0  0  0  0  0
   53.6490   79.4780   25.6740 C   0  0  0  0  0  0  0  0  0  0  0  0
   54.7460   79.4760   26.5390 C   0  0  0  0  0  0  0  0  0  0  0  0
   57.3100   79.4140   28.0060 C   0  0  0  0  0  0  0  0  0  0  0  0
   58.4090   79.4060   28.8770 C   0  0  0  0  0  0  0  0  0  0  0  0
   59.5200   81.3080   32.4880 N   0  0  0  0  0  0  0  0  0  0  0  0
   59.8780   82.0460   33.5540 C   0  0  0  0  0  0  0  0  0  0  0  0
   61.0080   82.8250   33.5920 C   0  0  0  0  0  0  0  0  0  0  0  0
   61.4270   83.8180   35.1420 Br  0  0  0  0  0  0  0  0  0  0  0  0
   66.7115   82.6189   31.8280 H   0  0  0  0  0  0  0  0  0  0  0  0
   66.5132   81.7235   30.2835 H   0  0  0  0  0  0  0  0  0  0  0  0
   66.5394   83.5196   30.2835 H   0  0  0  0  0  0  0  0  0  0  0  0
   64.3158   83.4582   30.3952 H   0  0  0  0  0  0  0  0  0  0  0  0
   64.7890   80.7180   31.1110 H   0  0  0  0  0  0  0  0  0  0  0  0
   64.1998   82.0231   33.0556 H   0  0  0  0  0  0  0  0  0  0  0  0
   65.1372   83.7310   34.2960 H   0  0  0  0  0  0  0  0  0  0  0  0
   66.2905   83.5532   32.9304 H   0  0  0  0  0  0  0  0  0  0  0  0
   65.0989   84.8974   32.9304 H   0  0  0  0  0  0  0  0  0  0  0  0
   62.8580   84.3980   33.0490 H   0  0  0  0  0  0  0  0  0  0  0  0
   60.8520   80.1140   29.9930 H   0  0  0  0  0  0  0  0  0  0  0  0
   58.7375   82.7455   29.3577 H   0  0  0  0  0  0  0  0  0  0  0  0
   56.7928   82.7671   27.8188 H   0  0  0  0  0  0  0  0  0  0  0  0
   55.8346   82.6749   26.0639 H   0  0  0  0  0  0  0  0  0  0  0  0
   53.8764   82.6933   24.5227 H   0  0  0  0  0  0  0  0  0  0  0  0
   49.4480   81.9960   22.5870 H   0  0  0  0  0  0  0  0  0  0  0  0
   49.3140   81.2540   21.0730 H   0  0  0  0  0  0  0  0  0  0  0  0
   53.0254   78.5781   25.5676 H   0  0  0  0  0  0  0  0  0  0  0  0
   54.9842   78.5654   27.1083 H   0  0  0  0  0  0  0  0  0  0  0  0
   56.9146   78.4596   27.6280 H   0  0  0  0  0  0  0  0  0  0  0  0
   58.8599   78.4455   29.1671 H   0  0  0  0  0  0  0  0  0  0  0  0
   59.2307   82.0243   34.4431 H   0  0  0  0  0  0  0  0  0  0  0  0
  1  2  1  0
  2  3  1  0
  2  4  1  0
  4  5  1  0
  4  6  1  0
  6  7  1  0
  7  8  2  0
  8  9  1  0
  9 10  1  0
 10 11  1  0
 11 12  1  0
 12 13  2  0
 13 14  1  0
 14 15  1  0
 15 16  1  0
 16 17  2  0
 17 18  1  0
 18 19  1  0
 19 20  2  0
 19 21  2  0
 19 22  1  0
 22 23  1  0
 23 24  1  0
 23 25  2  0
 23 26  2  0
 18 27  2  0
 27 28  1  0
 14 29  2  0
 29 30  1  0
  9 31  2  0
 31 32  1  0
 32 33  2  0
 33 34  1  0
 33  7  1  0
 30 11  2  0
 28 15  2  0
  1 35  1  0
  1 36  1  0
  1 37  1  0
  2 38  1  6
  3 39  1  0
  4 40  1  1
  5 41  1  0
  5 42  1  0
  5 43  1  0
  6 44  1  0
 10 45  1  0
 12 46  1  0
 13 47  1  0
 16 48  1  0
 17 49  1  0
 24 50  1  0
 24 51  1  0
 27 52  1  0
 28 53  1  0
 29 54  1  0
 30 55  1  0
 32 56  1  0
M  END
>  <meeko>  (1) 
{"is_sidechain": false}

>  <smiles>  (1) 
C[C@@H](O)[C@@H](C)Nc1nc(Nc2ccc(-c3ccc(S(=O)(=O)OS(N)(=O)=O)cc3)cc2)ncc1Br

>  <vina_score>  (1) 
-7.906

>  <job_id>  (1) 
6bdb198c40e2b91c

$$$$
