
     RDKit          3D

 61 65  0  0  0  0  0  0  0  0999 V2000
   62.5150   78.9100   37.9550 C   0  0  0  0  0  0  0  0  0  0  0  0
   62.5370   80.1310   37.1570 N   0  0  0  0  0  0  0  0  0  0  0  0
   61.2090   80.7770   37.0990 C   0  0  0  0  0  0  0  0  0  0  0  0
   60.3710   80.4850   35.8310 C   0  0  0  0  0  0  0  0  0  0  0  0
   61.1150   80.8240   34.6060 N   0  0  0  0  0  0  0  0  0  0  0  0
   60.4630   81.2200   33.4500 C   0  0  0  0  0  0  0  0  0  0  0  0
   61.1340   81.8860   32.4140 C   0  0  0  0  0  0  0  0  0  0  0  0
   60.4780   82.2980   31.2440 C   0  0  0  0  0  0  0  0  0  0  0  0
   59.1090   82.0850   31.0720 C   0  0  0  0  0  0  0  0  0  0  0  0
   58.4950   82.4630   29.8560 N   0  0  0  0  0  0  0  0  0  0  0  0
   59.0580   82.0420   28.6550 N   0  0  0  0  0  0  0  0  0  0  0  0
   59.0380   80.6440   28.5960 N   0  0  0  0  0  0  0  0  0  0  0  0
   57.7980   80.0300   28.3410 C   0  0  0  0  0  0  0  0  0  0  0  0
   57.5150   78.8460   28.9260 N   0  0  0  0  0  0  0  0  0  0  0  0
   56.3210   78.2880   28.6530 C   0  0  0  0  0  0  0  0  0  0  0  0
   55.4040   78.8560   27.8040 C   0  0  0  0  0  0  0  0  0  0  0  0
   55.7960   80.0740   27.2670 C   0  0  0  0  0  0  0  0  0  0  0  0
   56.9690   80.6760   27.5100 N   0  0  0  0  0  0  0  0  0  0  0  0
   54.8710   80.7230   26.3550 C   0  0  0  0  0  0  0  0  0  0  0  0
   53.7270   80.1210   25.8650 C   0  0  0  0  0  0  0  0  0  0  0  0
   53.1300   81.0790   24.9980 C   0  0  0  0  0  0  0  0  0  0  0  0
   51.9020   80.9620   24.1960 C   0  0  0  0  0  0  0  0  0  0  0  0
   52.0920   80.7720   22.8500 N   0  0  0  0  0  0  0  0  0  0  0  0
   50.7620   80.9820   24.6500 O   0  0  0  0  0  0  0  0  0  0  0  0
   53.8670   82.2050   24.9760 N   0  0  0  0  0  0  0  0  0  0  0  0
   54.9170   81.9610   25.7860 N   0  0  0  0  0  0  0  0  0  0  0  0
   55.9230   82.9820   25.9580 C   0  0  0  0  0  0  0  0  0  0  0  0
   53.3980   78.7040   26.2010 C   0  0  0  0  0  0  0  0  0  0  0  0
   54.0360   78.2750   27.5470 C   0  0  0  0  0  0  0  0  0  0  0  0
   58.4350   81.3910   32.0770 C   0  0  0  0  0  0  0  0  0  0  0  0
   59.0970   80.9820   33.2460 C   0  0  0  0  0  0  0  0  0  0  0  0
   62.5820   80.8540   34.7210 C   0  0  0  0  0  0  0  0  0  0  0  0
   63.0600   79.8550   35.8000 C   0  0  0  0  0  0  0  0  0  0  0  0
   62.5197   79.1703   39.0237 H   0  0  0  0  0  0  0  0  0  0  0  0
   61.6064   78.3357   37.7215 H   0  0  0  0  0  0  0  0  0  0  0  0
   63.4024   78.3033   37.7215 H   0  0  0  0  0  0  0  0  0  0  0  0
   60.6306   80.4377   37.9710 H   0  0  0  0  0  0  0  0  0  0  0  0
   61.4045   81.8594   37.0843 H   0  0  0  0  0  0  0  0  0  0  0  0
   60.1146   79.4155   35.8097 H   0  0  0  0  0  0  0  0  0  0  0  0
   59.4620   81.1034   35.8665 H   0  0  0  0  0  0  0  0  0  0  0  0
   62.2091   82.0920   32.5221 H   0  0  0  0  0  0  0  0  0  0  0  0
   61.0519   82.7970   30.4492 H   0  0  0  0  0  0  0  0  0  0  0  0
   57.4800   82.3800   29.8920 H   0  0  0  0  0  0  0  0  0  0  0  0
   58.5320   82.4220   27.8550 H   0  0  0  0  0  0  0  0  0  0  0  0
   59.7030   80.2350   27.9450 H   0  0  0  0  0  0  0  0  0  0  0  0
   56.0679   77.3312   29.1331 H   0  0  0  0  0  0  0  0  0  0  0  0
   52.9610   80.3620   22.5390 H   0  0  0  0  0  0  0  0  0  0  0  0
   51.2530   80.4960   22.3570 H   0  0  0  0  0  0  0  0  0  0  0  0
   56.0918   83.1533   27.0314 H   0  0  0  0  0  0  0  0  0  0  0  0
   56.8616   82.6550   25.4868 H   0  0  0  0  0  0  0  0  0  0  0  0
   55.5821   83.9157   25.4868 H   0  0  0  0  0  0  0  0  0  0  0  0
   52.3055   78.5986   26.2739 H   0  0  0  0  0  0  0  0  0  0  0  0
   53.8022   78.0589   25.4070 H   0  0  0  0  0  0  0  0  0  0  0  0
   53.3686   78.5945   28.3609 H   0  0  0  0  0  0  0  0  0  0  0  0
   54.1636   77.1835   27.4989 H   0  0  0  0  0  0  0  0  0  0  0  0
   57.3668   81.1602   31.9517 H   0  0  0  0  0  0  0  0  0  0  0  0
   58.5253   80.4582   34.0263 H   0  0  0  0  0  0  0  0  0  0  0  0
   63.0269   80.5815   33.7526 H   0  0  0  0  0  0  0  0  0  0  0  0
   62.8960   81.8678   35.0101 H   0  0  0  0  0  0  0  0  0  0  0  0
   62.7359   78.8464   35.5040 H   0  0  0  0  0  0  0  0  0  0  0  0
   64.1543   79.9515   35.8574 H   0  0  0  0  0  0  0  0  0  0  0  0
  1  2  1  0
  2  3  1  0
  3  4  1  0
  4  5  1  0
  5  6  1  0
  6  7  1  0
  7  8  2  0
  8  9  1  0
  9 10  1  0
 10 11  1  0
 11 12  1  0
 12 13  1  0
 13 14  2  0
 14 15  1  0
 15 16  2  0
 16 17  1  0
 17 18  2  0
 17 19  1  0
 19 20  2  0
 20 21  1  0
 21 22  1  0
 22 23  1  0
 22 24  2  0
 21 25  2  0
 25 26  1  0
 26 27  1  0
 20 28  1  0
 28 29  1  0
  9 30  2  0
 30 31  1  0
  5 32  1  0
 32 33  1  0
 33  2  1  0
 31  6  2  0
 18 13  1  0
 26 19  1  0
 29 16  1  0
  1 34  1  0
  1 35  1  0
  1 36  1  0
  3 37  1  0
  3 38  1  0
  4 39  1  0
  4 40  1  0
  7 41  1  0
  8 42  1  0
 10 43  1  0
 11 44  1  0
 12 45  1  0
 15 46  1  0
 23 47  1  0
 23 48  1  0
 27 49  1  0
 27 50  1  0
 27 51  1  0
 28 52  1  0
 28 53  1  0
 29 54  1  0
 29 55  1  0
 30 56  1  0
 31 57  1  0
 32 58  1  0
 32 59  1  0
 33 60  1  0
 33 61  1  0
M  END
>  <meeko>  (1) 
{"is_sidechain": false}

>  <smiles>  (1) 
CN1CCN(c2ccc(NNNc3ncc4c(n3)-c3c(c(C(N)=O)nn3C)CC4)cc2)CC1

>  <vina_score>  (1) 
-9.004

>  <job_id>  (1) 
6bf0f34e8133e2af

$$$$
