
     RDKit          3D

 68 72  0  0  0  0  0  0  0  0999 V2000
   63.3150   87.3070   30.2690 C   0  0  0  0  0  0  0  0  0  0  0  0
   62.8240   86.7140   31.5140 N   0  0  0  0  0  0  0  0  0  0  0  0
   63.9180   86.5480   32.4680 C   0  0  0  0  0  0  0  0  0  0  0  0
   62.0170   85.4970   31.2690 C   0  0  0  0  0  0  0  0  0  0  0  0
   60.6270   85.5680   31.9160 C   0  0  0  0  0  0  0  0  0  0  0  0
   59.7370   84.4330   31.3960 C   0  0  0  0  0  0  0  0  0  0  0  0
   60.4980   83.1900   31.1860 N   0  0  0  0  0  0  0  0  0  0  0  0
   59.8590   82.0650   30.6770 C   0  0  0  0  0  0  0  0  0  0  0  0
   59.0560   81.2270   31.4540 C   0  0  0  0  0  0  0  0  0  0  0  0
   58.4150   80.1050   30.9090 C   0  0  0  0  0  0  0  0  0  0  0  0
   58.5590   79.8120   29.5630 C   0  0  0  0  0  0  0  0  0  0  0  0
   57.9800   78.7320   28.9280 N   0  0  0  0  0  0  0  0  0  0  0  0
   56.6990   78.2090   28.8480 C   0  0  0  0  0  0  0  0  0  0  0  0
   56.3630   77.0980   29.5320 N   0  0  0  0  0  0  0  0  0  0  0  0
   55.1050   76.6120   29.4360 C   0  0  0  0  0  0  0  0  0  0  0  0
   54.1820   77.2510   28.6220 C   0  0  0  0  0  0  0  0  0  0  0  0
   52.8260   77.0640   28.2670 C   0  0  0  0  0  0  0  0  0  0  0  0
   52.4840   78.0800   27.4000 C   0  0  0  0  0  0  0  0  0  0  0  0
   53.5880   78.8800   27.2010 N   0  0  0  0  0  0  0  0  0  0  0  0
   53.6650   80.0990   26.3740 C   0  0  0  0  0  0  0  0  0  0  0  0
   53.7070   81.3660   27.2720 C   0  0  0  0  0  0  0  0  0  0  0  0
   54.5830   82.4150   26.7670 N   0  0  0  0  0  0  0  0  0  0  0  0
   54.1080   83.5900   26.2430 C   0  0  0  0  0  0  0  0  0  0  0  0
   52.9350   83.9150   26.1440 O   0  0  0  0  0  0  0  0  0  0  0  0
   54.8750   80.0540   25.4050 C   0  0  0  0  0  0  0  0  0  0  0  0
   54.4350   79.1320   24.2700 C   0  0  0  0  0  0  0  0  0  0  0  0
   52.9210   79.2920   24.1750 C   0  0  0  0  0  0  0  0  0  0  0  0
   52.5310   80.2280   25.3190 C   0  0  0  0  0  0  0  0  0  0  0  0
   54.6340   78.3760   27.9560 C   0  0  0  0  0  0  0  0  0  0  0  0
   55.8720   78.8890   28.0340 N   0  0  0  0  0  0  0  0  0  0  0  0
   59.3050   80.6050   28.7690 N   0  0  0  0  0  0  0  0  0  0  0  0
   59.9100   81.6890   29.3320 C   0  0  0  0  0  0  0  0  0  0  0  0
   61.7150   83.0560   31.9880 C   0  0  0  0  0  0  0  0  0  0  0  0
   62.7080   84.1600   31.6140 C   0  0  0  0  0  0  0  0  0  0  0  0
   64.0005   88.1349   30.5026 H   0  0  0  0  0  0  0  0  0  0  0  0
   63.8485   86.5430   29.6844 H   0  0  0  0  0  0  0  0  0  0  0  0
   62.4649   87.6886   29.6844 H   0  0  0  0  0  0  0  0  0  0  0  0
   63.5230   86.6079   33.4929 H   0  0  0  0  0  0  0  0  0  0  0  0
   64.3926   85.5676   32.3147 H   0  0  0  0  0  0  0  0  0  0  0  0
   64.6621   87.3435   32.3147 H   0  0  0  0  0  0  0  0  0  0  0  0
   61.8997   85.4939   30.1753 H   0  0  0  0  0  0  0  0  0  0  0  0
   60.7301   85.4768   33.0074 H   0  0  0  0  0  0  0  0  0  0  0  0
   60.1627   86.5317   31.6595 H   0  0  0  0  0  0  0  0  0  0  0  0
   58.9396   84.2421   32.1293 H   0  0  0  0  0  0  0  0  0  0  0  0
   59.3191   84.7443   30.4273 H   0  0  0  0  0  0  0  0  0  0  0  0
   58.9228   81.4532   32.5222 H   0  0  0  0  0  0  0  0  0  0  0  0
   57.7982   79.4581   31.5501 H   0  0  0  0  0  0  0  0  0  0  0  0
   58.6390   78.1980   28.3880 H   0  0  0  0  0  0  0  0  0  0  0  0
   54.8150   75.7138   30.0010 H   0  0  0  0  0  0  0  0  0  0  0  0
   52.1660   76.2570   28.6178 H   0  0  0  0  0  0  0  0  0  0  0  0
   51.4943   78.2274   26.9431 H   0  0  0  0  0  0  0  0  0  0  0  0
   52.6874   81.7718   27.3473 H   0  0  0  0  0  0  0  0  0  0  0  0
   54.1089   81.0546   28.2475 H   0  0  0  0  0  0  0  0  0  0  0  0
   55.5860   82.2800   26.8010 H   0  0  0  0  0  0  0  0  0  0  0  0
   54.8556   84.3089   25.8766 H   0  0  0  0  0  0  0  0  0  0  0  0
   55.1011   81.0597   25.0211 H   0  0  0  0  0  0  0  0  0  0  0  0
   55.7890   79.6943   25.9001 H   0  0  0  0  0  0  0  0  0  0  0  0
   54.9127   79.4310   23.3253 H   0  0  0  0  0  0  0  0  0  0  0  0
   54.7228   78.0874   24.4594 H   0  0  0  0  0  0  0  0  0  0  0  0
   52.6420   79.7330   23.2067 H   0  0  0  0  0  0  0  0  0  0  0  0
   52.4051   78.3233   24.2493 H   0  0  0  0  0  0  0  0  0  0  0  0
   52.4588   81.2647   24.9585 H   0  0  0  0  0  0  0  0  0  0  0  0
   51.5507   79.9643   25.7427 H   0  0  0  0  0  0  0  0  0  0  0  0
   60.4973   82.3323   28.6603 H   0  0  0  0  0  0  0  0  0  0  0  0
   61.4603   83.1403   33.0548 H   0  0  0  0  0  0  0  0  0  0  0  0
   62.1724   82.0750   31.7920 H   0  0  0  0  0  0  0  0  0  0  0  0
   63.3866   84.3246   32.4639 H   0  0  0  0  0  0  0  0  0  0  0  0
   63.2499   83.8269   30.7165 H   0  0  0  0  0  0  0  0  0  0  0  0
  1  2  1  0
  2  3  1  0
  2  4  1  0
  4  5  1  0
  5  6  1  0
  6  7  1  0
  7  8  1  0
  8  9  2  0
  9 10  1  0
 10 11  2  0
 11 12  1  0
 12 13  1  0
 13 14  2  0
 14 15  1  0
 15 16  2  0
 16 17  1  0
 17 18  2  0
 18 19  1  0
 19 20  1  0
 20 21  1  0
 21 22  1  0
 22 23  1  0
 23 24  2  0
 20 25  1  0
 25 26  1  0
 26 27  1  0
 27 28  1  0
 19 29  1  0
 29 30  2  0
 11 31  1  0
 31 32  2  0
  7 33  1  0
 33 34  1  0
 34  4  1  0
 32  8  1  0
 30 13  1  0
 29 16  1  0
 28 20  1  0
  1 35  1  0
  1 36  1  0
  1 37  1  0
  3 38  1  0
  3 39  1  0
  3 40  1  0
  4 41  1  0
  5 42  1  0
  5 43  1  0
  6 44  1  0
  6 45  1  0
  9 46  1  0
 10 47  1  0
 12 48  1  0
 15 49  1  0
 17 50  1  0
 18 51  1  0
 21 52  1  0
 21 53  1  0
 22 54  1  0
 23 55  1  0
 25 56  1  0
 25 57  1  0
 26 58  1  0
 26 59  1  0
 27 60  1  0
 27 61  1  0
 28 62  1  0
 28 63  1  0
 32 64  1  0
 33 65  1  0
 33 66  1  0
 34 67  1  0
 34 68  1  0
M  END
>  <meeko>  (1) 
{"is_sidechain": false}

>  <smiles>  (1) 
CN(C)C1CCN(c2ccc(Nc3ncc4ccn(C5(CNC=O)CCCC5)c4n3)nc2)CC1

>  <vina_score>  (1) 
-8.046

>  <job_id>  (1) 
6c2f0159cfd6a0ca

$$$$
