
     RDKit          3D

 51 53  0  0  0  0  0  0  0  0999 V2000
   52.6290   81.6270   24.0890 C   0  0  0  0  0  0  0  0  0  0  0  0
   53.1290   80.4120   24.7810 C   0  0  0  0  0  0  0  0  0  0  0  0
   52.9350   79.1910   24.3280 N   0  0  0  0  0  0  0  0  0  0  0  0
   53.4990   78.3540   25.2430 C   0  0  0  0  0  0  0  0  0  0  0  0
   54.0300   79.0540   26.3060 C   0  0  0  0  0  0  0  0  0  0  0  0
   54.6760   78.5260   27.4980 C   0  0  0  0  0  0  0  0  0  0  0  0
   55.9590   78.9240   27.6490 N   0  0  0  0  0  0  0  0  0  0  0  0
   56.6320   78.4570   28.7140 C   0  0  0  0  0  0  0  0  0  0  0  0
   57.9440   78.9080   28.8190 N   0  0  0  0  0  0  0  0  0  0  0  0
   58.5860   79.8560   29.6220 C   0  0  0  0  0  0  0  0  0  0  0  0
   59.3100   80.8860   28.9920 C   0  0  0  0  0  0  0  0  0  0  0  0
   59.9610   81.8800   29.7300 C   0  0  0  0  0  0  0  0  0  0  0  0
   59.8810   81.8690   31.1230 C   0  0  0  0  0  0  0  0  0  0  0  0
   60.6050   82.9020   31.8870 C   0  0  0  0  0  0  0  0  0  0  0  0
   61.8170   82.7430   32.0180 O   0  0  0  0  0  0  0  0  0  0  0  0
   59.9140   84.0010   32.3920 N   0  0  0  0  0  0  0  0  0  0  0  0
   60.6110   84.9130   33.2810 C   0  0  0  0  0  0  0  0  0  0  0  0
   58.5320   84.3390   32.0820 C   0  0  0  0  0  0  0  0  0  0  0  0
   59.1880   80.8460   31.7600 C   0  0  0  0  0  0  0  0  0  0  0  0
   59.1260   80.7880   33.1000 F   0  0  0  0  0  0  0  0  0  0  0  0
   58.5380   79.8570   31.0200 C   0  0  0  0  0  0  0  0  0  0  0  0
   56.0900   77.6260   29.6200 N   0  0  0  0  0  0  0  0  0  0  0  0
   54.8100   77.2420   29.4260 C   0  0  0  0  0  0  0  0  0  0  0  0
   54.0510   77.6650   28.3700 C   0  0  0  0  0  0  0  0  0  0  0  0
   52.7810   77.2670   28.2190 F   0  0  0  0  0  0  0  0  0  0  0  0
   53.8410   80.3890   25.9700 N   0  0  0  0  0  0  0  0  0  0  0  0
   54.3810   81.5310   26.7080 C   0  0  0  0  0  0  0  0  0  0  0  0
   53.3100   82.4860   27.2370 C   0  0  0  0  0  0  0  0  0  0  0  0
   55.4750   82.2630   25.9280 C   0  0  0  0  0  0  0  0  0  0  0  0
   52.3216   82.3739   24.8357 H   0  0  0  0  0  0  0  0  0  0  0  0
   53.4281   82.0453   23.4593 H   0  0  0  0  0  0  0  0  0  0  0  0
   51.7669   81.3617   23.4593 H   0  0  0  0  0  0  0  0  0  0  0  0
   53.5273   77.2586   25.1462 H   0  0  0  0  0  0  0  0  0  0  0  0
   58.5260   78.3560   28.2040 H   0  0  0  0  0  0  0  0  0  0  0  0
   59.3650   80.9096   27.8936 H   0  0  0  0  0  0  0  0  0  0  0  0
   60.5329   82.6660   29.2151 H   0  0  0  0  0  0  0  0  0  0  0  0
   60.4014   84.6388   34.3254 H   0  0  0  0  0  0  0  0  0  0  0  0
   61.6934   84.8502   33.0956 H   0  0  0  0  0  0  0  0  0  0  0  0
   60.2662   85.9410   33.0956 H   0  0  0  0  0  0  0  0  0  0  0  0
   57.9695   84.4766   33.0173 H   0  0  0  0  0  0  0  0  0  0  0  0
   58.5046   85.2703   31.4973 H   0  0  0  0  0  0  0  0  0  0  0  0
   58.0779   83.5255   31.4973 H   0  0  0  0  0  0  0  0  0  0  0  0
   57.9799   79.0669   31.5438 H   0  0  0  0  0  0  0  0  0  0  0  0
   54.3549   76.5543   30.1540 H   0  0  0  0  0  0  0  0  0  0  0  0
   54.8551   81.0999   27.6021 H   0  0  0  0  0  0  0  0  0  0  0  0
   53.3210   82.4762   28.3369 H   0  0  0  0  0  0  0  0  0  0  0  0
   53.5171   83.5047   26.8773 H   0  0  0  0  0  0  0  0  0  0  0  0
   52.3216   82.1640   26.8773 H   0  0  0  0  0  0  0  0  0  0  0  0
   56.1766   82.7324   26.6333 H   0  0  0  0  0  0  0  0  0  0  0  0
   56.0169   81.5450   25.2950 H   0  0  0  0  0  0  0  0  0  0  0  0
   55.0180   83.0379   25.2950 H   0  0  0  0  0  0  0  0  0  0  0  0
  1  2  1  0
  2  3  2  0
  3  4  1  0
  4  5  2  0
  5  6  1  0
  6  7  2  0
  7  8  1  0
  8  9  1  0
  9 10  1  0
 10 11  1  0
 11 12  2  0
 12 13  1  0
 13 14  1  0
 14 15  2  0
 14 16  1  0
 16 17  1  0
 16 18  1  0
 13 19  2  0
 19 20  1  0
 19 21  1  0
  8 22  2  0
 22 23  1  0
 23 24  2  0
 24 25  1  0
  5 26  1  0
 26 27  1  0
 27 28  1  0
 27 29  1  0
 26  2  1  0
 24  6  1  0
 21 10  2  0
  1 30  1  0
  1 31  1  0
  1 32  1  0
  4 33  1  0
  9 34  1  0
 11 35  1  0
 12 36  1  0
 17 37  1  0
 17 38  1  0
 17 39  1  0
 18 40  1  0
 18 41  1  0
 18 42  1  0
 21 43  1  0
 23 44  1  0
 27 45  1  0
 28 46  1  0
 28 47  1  0
 28 48  1  0
 29 49  1  0
 29 50  1  0
 29 51  1  0
M  END
>  <meeko>  (1) 
{"is_sidechain": false}

>  <smiles>  (1) 
Cc1ncc(-c2nc(Nc3ccc(C(=O)N(C)C)c(F)c3)ncc2F)n1C(C)C

>  <vina_score>  (1) 
-9.257

>  <job_id>  (1) 
6c40ae55cafa074e

$$$$
