
     RDKit          3D

 40 42  0  0  0  0  0  0  0  0999 V2000
   52.7660   81.6210   24.1130 C   0  0  0  0  0  0  0  0  0  0  0  0
   53.1770   80.3670   24.7980 C   0  0  0  0  0  0  0  0  0  0  0  0
   52.9350   79.1600   24.3380 N   0  0  0  0  0  0  0  0  0  0  0  0
   53.4490   78.3030   25.2640 C   0  0  0  0  0  0  0  0  0  0  0  0
   54.0160   78.9770   26.3310 C   0  0  0  0  0  0  0  0  0  0  0  0
   54.6360   78.4090   27.5190 C   0  0  0  0  0  0  0  0  0  0  0  0
   55.9180   78.7820   27.7260 N   0  0  0  0  0  0  0  0  0  0  0  0
   56.5320   78.3200   28.8290 C   0  0  0  0  0  0  0  0  0  0  0  0
   57.8470   78.7420   28.9820 N   0  0  0  0  0  0  0  0  0  0  0  0
   58.4440   79.8580   29.5730 C   0  0  0  0  0  0  0  0  0  0  0  0
   58.5640   80.0550   30.9480 C   0  0  0  0  0  0  0  0  0  0  0  0
   59.1900   81.1980   31.4510 C   0  0  0  0  0  0  0  0  0  0  0  0
   59.6930   82.1240   30.5560 C   0  0  0  0  0  0  0  0  0  0  0  0
   59.6120   81.9830   29.2190 N   0  0  0  0  0  0  0  0  0  0  0  0
   58.9960   80.8610   28.7700 C   0  0  0  0  0  0  0  0  0  0  0  0
   55.9350   77.5090   29.7180 N   0  0  0  0  0  0  0  0  0  0  0  0
   54.6510   77.1680   29.4830 C   0  0  0  0  0  0  0  0  0  0  0  0
   53.9460   77.5980   28.3910 C   0  0  0  0  0  0  0  0  0  0  0  0
   52.6720   77.2340   28.2030 F   0  0  0  0  0  0  0  0  0  0  0  0
   53.8730   80.3150   26.0000 N   0  0  0  0  0  0  0  0  0  0  0  0
   54.3840   81.4990   26.6940 C   0  0  0  0  0  0  0  0  0  0  0  0
   53.3100   82.4890   27.1510 C   0  0  0  0  0  0  0  0  0  0  0  0
   55.5170   82.1810   25.9290 C   0  0  0  0  0  0  0  0  0  0  0  0
   52.5158   82.3843   24.8645 H   0  0  0  0  0  0  0  0  0  0  0  0
   53.5925   81.9830   23.4838 H   0  0  0  0  0  0  0  0  0  0  0  0
   51.8856   81.4235   23.4838 H   0  0  0  0  0  0  0  0  0  0  0  0
   53.4171   77.2071   25.1742 H   0  0  0  0  0  0  0  0  0  0  0  0
   58.4550   78.1050   28.4860 H   0  0  0  0  0  0  0  0  0  0  0  0
   58.1620   79.3033   31.6432 H   0  0  0  0  0  0  0  0  0  0  0  0
   59.2808   81.3578   32.5355 H   0  0  0  0  0  0  0  0  0  0  0  0
   60.1849   83.0226   30.9567 H   0  0  0  0  0  0  0  0  0  0  0  0
   58.9245   80.7287   27.6803 H   0  0  0  0  0  0  0  0  0  0  0  0
   54.1448   76.5110   30.2056 H   0  0  0  0  0  0  0  0  0  0  0  0
   54.8111   81.1055   27.6282 H   0  0  0  0  0  0  0  0  0  0  0  0
   53.2804   82.5163   28.2503 H   0  0  0  0  0  0  0  0  0  0  0  0
   53.5476   83.4915   26.7656 H   0  0  0  0  0  0  0  0  0  0  0  0
   52.3301   82.1707   26.7656 H   0  0  0  0  0  0  0  0  0  0  0  0
   56.2338   82.6125   26.6431 H   0  0  0  0  0  0  0  0  0  0  0  0
   56.0297   81.4413   25.2965 H   0  0  0  0  0  0  0  0  0  0  0  0
   55.1033   82.9803   25.2965 H   0  0  0  0  0  0  0  0  0  0  0  0
  1  2  1  0
  2  3  2  0
  3  4  1  0
  4  5  2  0
  5  6  1  0
  6  7  2  0
  7  8  1  0
  8  9  1  0
  9 10  1  0
 10 11  1  0
 11 12  2  0
 12 13  1  0
 13 14  2  0
 14 15  1  0
  8 16  2  0
 16 17  1  0
 17 18  2  0
 18 19  1  0
  5 20  1  0
 20 21  1  0
 21 22  1  0
 21 23  1  0
 20  2  1  0
 18  6  1  0
 15 10  2  0
  1 24  1  0
  1 25  1  0
  1 26  1  0
  4 27  1  0
  9 28  1  0
 11 29  1  0
 12 30  1  0
 13 31  1  0
 15 32  1  0
 17 33  1  0
 21 34  1  0
 22 35  1  0
 22 36  1  0
 22 37  1  0
 23 38  1  0
 23 39  1  0
 23 40  1  0
M  END
>  <meeko>  (1) 
{"is_sidechain": false}

>  <smiles>  (1) 
Cc1ncc(-c2nc(Nc3cccnc3)ncc2F)n1C(C)C

>  <vina_score>  (1) 
-8.436

>  <job_id>  (1) 
6c41d1108c949cda

$$$$
