
     RDKit          3D

 34 36  0  0  0  0  0  0  0  0999 V2000
   60.9740   82.2830   33.8480 C   0  0  0  0  0  0  0  0  0  0  0  0
   61.1790   82.5380   32.4640 O   0  0  0  0  0  0  0  0  0  0  0  0
   60.4190   81.8220   31.5820 C   0  0  0  0  0  0  0  0  0  0  0  0
   59.4920   80.9610   32.1760 C   0  0  0  0  0  0  0  0  0  0  0  0
   58.6500   80.1690   31.3910 C   0  0  0  0  0  0  0  0  0  0  0  0
   58.7190   80.2410   29.9960 C   0  0  0  0  0  0  0  0  0  0  0  0
   57.8030   79.3810   29.1940 C   0  0  0  0  0  0  0  0  0  0  0  0
   58.0010   79.2750   27.9880 O   0  0  0  0  0  0  0  0  0  0  0  0
   56.8150   78.7520   29.9130 N   0  0  0  0  0  0  0  0  0  0  0  0
   55.8480   77.9300   29.3880 C   0  0  0  0  0  0  0  0  0  0  0  0
   54.7970   78.2270   28.4930 C   0  0  0  0  0  0  0  0  0  0  0  0
   54.1380   77.0360   28.3210 C   0  0  0  0  0  0  0  0  0  0  0  0
   52.9110   76.7720   27.4240 C   0  0  0  0  0  0  0  0  0  0  0  0
   52.5630   75.3540   27.0610 C   0  0  0  0  0  0  0  0  0  0  0  0
   51.6990   76.1120   28.0250 C   0  0  0  0  0  0  0  0  0  0  0  0
   54.8010   76.1210   29.0780 N   0  0  0  0  0  0  0  0  0  0  0  0
   55.8460   76.6420   29.7480 N   0  0  0  0  0  0  0  0  0  0  0  0
   59.6570   81.0910   29.3980 C   0  0  0  0  0  0  0  0  0  0  0  0
   60.5010   81.8810   30.1900 C   0  0  0  0  0  0  0  0  0  0  0  0
   61.5535   83.0039   34.4434 H   0  0  0  0  0  0  0  0  0  0  0  0
   59.9050   82.3867   34.0855 H   0  0  0  0  0  0  0  0  0  0  0  0
   61.3050   81.2612   34.0855 H   0  0  0  0  0  0  0  0  0  0  0  0
   59.4246   80.9063   33.2726 H   0  0  0  0  0  0  0  0  0  0  0  0
   57.9318   79.4879   31.8709 H   0  0  0  0  0  0  0  0  0  0  0  0
   56.7760   78.8050   30.9200 H   0  0  0  0  0  0  0  0  0  0  0  0
   54.5592   79.1984   28.0350 H   0  0  0  0  0  0  0  0  0  0  0  0
   53.0954   77.6973   26.8585 H   0  0  0  0  0  0  0  0  0  0  0  0
   52.1884   75.1207   26.0534 H   0  0  0  0  0  0  0  0  0  0  0  0
   53.0963   74.3922   27.0860 H   0  0  0  0  0  0  0  0  0  0  0  0
   50.6913   76.4344   27.7239 H   0  0  0  0  0  0  0  0  0  0  0  0
   51.3371   75.9359   29.0487 H   0  0  0  0  0  0  0  0  0  0  0  0
   54.5960   75.1340   29.1870 H   0  0  0  0  0  0  0  0  0  0  0  0
   59.7318   81.1390   28.3016 H   0  0  0  0  0  0  0  0  0  0  0  0
   61.2314   82.5506   29.7124 H   0  0  0  0  0  0  0  0  0  0  0  0
  1  2  1  0
  2  3  1  0
  3  4  1  0
  4  5  2  0
  5  6  1  0
  6  7  1  0
  7  8  2  0
  7  9  1  0
  9 10  1  0
 10 11  1  0
 11 12  2  0
 12 13  1  0
 13 14  1  0
 14 15  1  0
 12 16  1  0
 16 17  1  0
  6 18  2  0
 18 19  1  0
 19  3  2  0
 17 10  2  0
 15 13  1  0
  1 20  1  0
  1 21  1  0
  1 22  1  0
  4 23  1  0
  5 24  1  0
  9 25  1  0
 11 26  1  0
 13 27  1  0
 14 28  1  0
 14 29  1  0
 15 30  1  0
 15 31  1  0
 16 32  1  0
 18 33  1  0
 19 34  1  0
M  END
>  <meeko>  (1) 
{"is_sidechain": false}

>  <smiles>  (1) 
COc1ccc(C(=O)Nc2cc(C3CC3)[nH]n2)cc1

>  <vina_score>  (1) 
-7.594

>  <job_id>  (1) 
6c4b2cefc43ca926

$$$$
