
     RDKit          3D

 42 43  0  0  0  0  0  0  0  0999 V2000
   61.9560   81.5660   34.1320 C   0  0  0  0  0  0  0  0  0  0  0  0
   61.7400   81.3370   32.7270 N   0  0  0  0  0  0  0  0  0  0  0  0
   60.8460   82.1150   32.0180 C   0  0  0  0  0  0  0  0  0  0  0  0
   60.1100   82.9460   32.5420 O   0  0  0  0  0  0  0  0  0  0  0  0
   60.8080   81.8280   30.5260 C   0  0  0  0  0  0  0  0  0  0  0  0
   59.6130   81.0080   30.1000 C   0  0  0  0  0  0  0  0  0  0  0  0
   59.1820   81.0090   28.7700 C   0  0  0  0  0  0  0  0  0  0  0  0
   58.0690   80.2550   28.3840 C   0  0  0  0  0  0  0  0  0  0  0  0
   57.3600   79.4800   29.3150 C   0  0  0  0  0  0  0  0  0  0  0  0
   56.1870   78.6900   28.9080 C   0  0  0  0  0  0  0  0  0  0  0  0
   55.8640   77.4830   29.5540 C   0  0  0  0  0  0  0  0  0  0  0  0
   54.7620   76.7180   29.1600 C   0  0  0  0  0  0  0  0  0  0  0  0
   53.9540   77.1530   28.1130 C   0  0  0  0  0  0  0  0  0  0  0  0
   54.2410   78.3620   27.4760 C   0  0  0  0  0  0  0  0  0  0  0  0
   53.3900   78.7970   26.3460 C   0  0  0  0  0  0  0  0  0  0  0  0
   52.9380   77.9230   25.6090 O   0  0  0  0  0  0  0  0  0  0  0  0
   53.1570   80.1590   26.1590 N   0  0  0  0  0  0  0  0  0  0  0  0
   52.4480   80.5720   24.9600 C   0  0  0  0  0  0  0  0  0  0  0  0
   53.3150   81.1740   27.1910 C   0  0  0  0  0  0  0  0  0  0  0  0
   55.3610   79.1150   27.8550 C   0  0  0  0  0  0  0  0  0  0  0  0
   57.8060   79.4800   30.6460 C   0  0  0  0  0  0  0  0  0  0  0  0
   58.9190   80.2320   31.0350 C   0  0  0  0  0  0  0  0  0  0  0  0
   61.3166   80.8881   34.7165 H   0  0  0  0  0  0  0  0  0  0  0  0
   63.0116   81.3762   34.3764 H   0  0  0  0  0  0  0  0  0  0  0  0
   61.7048   82.6087   34.3764 H   0  0  0  0  0  0  0  0  0  0  0  0
   62.4820   80.8880   32.2030 H   0  0  0  0  0  0  0  0  0  0  0  0
   60.7820   82.7869   29.9876 H   0  0  0  0  0  0  0  0  0  0  0  0
   61.7060   81.2393   30.2869 H   0  0  0  0  0  0  0  0  0  0  0  0
   59.7223   81.6073   28.0215 H   0  0  0  0  0  0  0  0  0  0  0  0
   57.7439   80.2696   27.3332 H   0  0  0  0  0  0  0  0  0  0  0  0
   56.4918   77.1335   30.3869 H   0  0  0  0  0  0  0  0  0  0  0  0
   54.5338   75.7740   29.6764 H   0  0  0  0  0  0  0  0  0  0  0  0
   53.0944   76.5477   27.7894 H   0  0  0  0  0  0  0  0  0  0  0  0
   51.5295   81.1070   25.2431 H   0  0  0  0  0  0  0  0  0  0  0  0
   53.0909   81.2369   24.3646 H   0  0  0  0  0  0  0  0  0  0  0  0
   52.1868   79.6848   24.3646 H   0  0  0  0  0  0  0  0  0  0  0  0
   53.2417   80.7033   28.1825 H   0  0  0  0  0  0  0  0  0  0  0  0
   54.2988   81.6546   27.0851 H   0  0  0  0  0  0  0  0  0  0  0  0
   52.5239   81.9309   27.0851 H   0  0  0  0  0  0  0  0  0  0  0  0
   55.5952   80.0483   27.3221 H   0  0  0  0  0  0  0  0  0  0  0  0
   57.2710   78.8784   31.3956 H   0  0  0  0  0  0  0  0  0  0  0  0
   59.2513   80.2134   32.0834 H   0  0  0  0  0  0  0  0  0  0  0  0
  1  2  1  0
  2  3  1  0
  3  4  2  0
  3  5  1  0
  5  6  1  0
  6  7  1  0
  7  8  2  0
  8  9  1  0
  9 10  1  0
 10 11  2  0
 11 12  1  0
 12 13  2  0
 13 14  1  0
 14 15  1  0
 15 16  2  0
 15 17  1  0
 17 18  1  0
 17 19  1  0
 14 20  2  0
  9 21  2  0
 21 22  1  0
 22  6  2  0
 20 10  1  0
  1 23  1  0
  1 24  1  0
  1 25  1  0
  2 26  1  0
  5 27  1  0
  5 28  1  0
  7 29  1  0
  8 30  1  0
 11 31  1  0
 12 32  1  0
 13 33  1  0
 18 34  1  0
 18 35  1  0
 18 36  1  0
 19 37  1  0
 19 38  1  0
 19 39  1  0
 20 40  1  0
 21 41  1  0
 22 42  1  0
M  END
>  <meeko>  (1) 
{"is_sidechain": false}

>  <smiles>  (1) 
CNC(=O)Cc1ccc(-c2cccc(C(=O)N(C)C)c2)cc1

>  <vina_score>  (1) 
-8.251

>  <job_id>  (1) 
6c8611756827d840

$$$$
