
     RDKit          3D

 57 59  0  0  0  0  0  0  0  0999 V2000
   54.6290   83.4070   26.9090 C   0  0  0  0  0  0  0  0  0  0  0  0
   53.4240   82.4730   26.8960 C   0  0  0  0  0  0  0  0  0  0  0  0
   53.4370   81.4110   25.7760 C   0  0  0  0  0  0  0  0  0  0  0  0
   54.7970   80.8450   25.6940 N   0  0  0  0  0  0  0  0  0  0  0  0
   55.0380   79.8220   26.6050 C   0  0  0  0  0  0  0  0  0  0  0  0
   56.2030   79.8030   27.2720 N   0  0  0  0  0  0  0  0  0  0  0  0
   56.4460   78.8430   28.2110 C   0  0  0  0  0  0  0  0  0  0  0  0
   57.6280   78.8230   28.9710 N   0  0  0  0  0  0  0  0  0  0  0  0
   58.3780   79.8790   29.3570 C   0  0  0  0  0  0  0  0  0  0  0  0
   58.7430   80.2880   30.6220 C   0  0  0  0  0  0  0  0  0  0  0  0
   59.5150   81.4700   30.4890 C   0  0  0  0  0  0  0  0  0  0  0  0
   59.5970   81.7530   29.1450 C   0  0  0  0  0  0  0  0  0  0  0  0
   58.9050   80.7820   28.4650 N   0  0  0  0  0  0  0  0  0  0  0  0
   55.4600   77.8600   28.3930 C   0  0  0  0  0  0  0  0  0  0  0  0
   55.3940   76.7550   29.2160 N   0  0  0  0  0  0  0  0  0  0  0  0
   54.2160   76.2230   28.9670 C   0  0  0  0  0  0  0  0  0  0  0  0
   53.5210   76.9330   28.0200 N   0  0  0  0  0  0  0  0  0  0  0  0
   52.1870   76.6050   27.5370 C   0  0  0  0  0  0  0  0  0  0  0  0
   52.1860   75.3620   26.6460 C   0  0  0  0  0  0  0  0  0  0  0  0
   51.1760   76.4820   28.6760 C   0  0  0  0  0  0  0  0  0  0  0  0
   54.3090   77.9860   27.6380 C   0  0  0  0  0  0  0  0  0  0  0  0
   54.0350   78.9410   26.7400 N   0  0  0  0  0  0  0  0  0  0  0  0
   52.9310   82.0160   24.4390 C   0  0  0  0  0  0  0  0  0  0  0  0
   52.9350   83.2370   24.2430 O   0  0  0  0  0  0  0  0  0  0  0  0
   52.4030   81.0420   23.3490 C   0  0  0  0  0  0  0  0  0  0  0  0
   50.8650   80.9820   23.4180 C   0  0  0  0  0  0  0  0  0  0  0  0
   52.9350   79.6190   23.5600 C   0  0  0  0  0  0  0  0  0  0  0  0
   52.8100   81.5440   21.9580 C   0  0  0  0  0  0  0  0  0  0  0  0
   54.9118   83.6262   27.9492 H   0  0  0  0  0  0  0  0  0  0  0  0
   55.4725   82.9245   26.3936 H   0  0  0  0  0  0  0  0  0  0  0  0
   54.3721   84.3442   26.3936 H   0  0  0  0  0  0  0  0  0  0  0  0
   53.3869   81.9496   27.8628 H   0  0  0  0  0  0  0  0  0  0  0  0
   52.5444   83.1068   26.7100 H   0  0  0  0  0  0  0  0  0  0  0  0
   52.7416   80.5893   26.0024 H   0  0  0  0  0  0  0  0  0  0  0  0
   55.5050   81.5360   25.9260 H   0  0  0  0  0  0  0  0  0  0  0  0
   57.7950   77.9040   29.3760 H   0  0  0  0  0  0  0  0  0  0  0  0
   58.4820   79.7870   31.5658 H   0  0  0  0  0  0  0  0  0  0  0  0
   59.9643   82.0519   31.3073 H   0  0  0  0  0  0  0  0  0  0  0  0
   60.1243   82.6070   28.6948 H   0  0  0  0  0  0  0  0  0  0  0  0
   58.7950   80.7240   27.4570 H   0  0  0  0  0  0  0  0  0  0  0  0
   53.8338   75.3167   29.4595 H   0  0  0  0  0  0  0  0  0  0  0  0
   51.8658   77.4506   26.9110 H   0  0  0  0  0  0  0  0  0  0  0  0
   52.1853   74.4598   27.2753 H   0  0  0  0  0  0  0  0  0  0  0  0
   51.2879   75.3668   26.0109 H   0  0  0  0  0  0  0  0  0  0  0  0
   53.0841   75.3654   26.0109 H   0  0  0  0  0  0  0  0  0  0  0  0
   51.7008   76.5459   29.6406 H   0  0  0  0  0  0  0  0  0  0  0  0
   50.4412   77.2974   28.6037 H   0  0  0  0  0  0  0  0  0  0  0  0
   50.6581   75.5142   28.6037 H   0  0  0  0  0  0  0  0  0  0  0  0
   50.5454   80.9695   24.4705 H   0  0  0  0  0  0  0  0  0  0  0  0
   50.4408   81.8643   22.9164 H   0  0  0  0  0  0  0  0  0  0  0  0
   50.5108   80.0694   22.9164 H   0  0  0  0  0  0  0  0  0  0  0  0
   53.0122   79.4125   24.6377 H   0  0  0  0  0  0  0  0  0  0  0  0
   52.2459   78.8975   23.0968 H   0  0  0  0  0  0  0  0  0  0  0  0
   53.9284   79.5265   23.0968 H   0  0  0  0  0  0  0  0  0  0  0  0
   53.4996   82.3946   22.0624 H   0  0  0  0  0  0  0  0  0  0  0  0
   53.3088   80.7331   21.4070 H   0  0  0  0  0  0  0  0  0  0  0  0
   51.9135   81.8643   21.4070 H   0  0  0  0  0  0  0  0  0  0  0  0
  1  2  1  0
  2  3  1  0
  3  4  1  0
  4  5  1  0
  5  6  2  0
  6  7  1  0
  7  8  1  0
  8  9  1  0
  9 10  2  0
 10 11  1  0
 11 12  2  0
 12 13  1  0
  7 14  2  0
 14 15  1  0
 15 16  2  0
 16 17  1  0
 17 18  1  0
 18 19  1  0
 18 20  1  0
 17 21  1  0
 21 22  2  0
  3 23  1  0
 23 24  2  0
 23 25  1  0
 25 26  1  0
 25 27  1  0
 25 28  1  0
 22  5  1  0
 13  9  1  0
 21 14  1  0
  1 29  1  0
  1 30  1  0
  1 31  1  0
  2 32  1  0
  2 33  1  0
  3 34  1  0
  4 35  1  0
  8 36  1  0
 10 37  1  0
 11 38  1  0
 12 39  1  0
 13 40  1  0
 16 41  1  0
 18 42  1  0
 19 43  1  0
 19 44  1  0
 19 45  1  0
 20 46  1  0
 20 47  1  0
 20 48  1  0
 26 49  1  0
 26 50  1  0
 26 51  1  0
 27 52  1  0
 27 53  1  0
 27 54  1  0
 28 55  1  0
 28 56  1  0
 28 57  1  0
M  END
>  <meeko>  (1) 
{"is_sidechain": false}

>  <smiles>  (1) 
CCC(Nc1nc(Nc2ccc[nH]2)c2ncn(C(C)C)c2n1)C(=O)C(C)(C)C

>  <vina_score>  (1) 
-8.101

>  <job_id>  (1) 
6cfc831e5e30814a

$$$$
