
     RDKit          3D

 71 76  0  0  0  0  0  0  0  0999 V2000
   51.8100   83.0900   22.6880 C   0  0  0  0  0  0  0  0  0  0  0  0
   52.3520   81.9590   23.4840 C   0  0  0  0  0  0  0  0  0  0  0  0
   52.4110   80.7140   23.0640 N   0  0  0  0  0  0  0  0  0  0  0  0
   52.9720   79.9910   24.0860 C   0  0  0  0  0  0  0  0  0  0  0  0
   53.2720   78.6240   24.1740 C   0  0  0  0  0  0  0  0  0  0  0  0
   53.0100   77.7910   23.1550 F   0  0  0  0  0  0  0  0  0  0  0  0
   53.8490   78.1090   25.3380 C   0  0  0  0  0  0  0  0  0  0  0  0
   54.1390   78.9290   26.4430 C   0  0  0  0  0  0  0  0  0  0  0  0
   54.7500   78.3460   27.6590 C   0  0  0  0  0  0  0  0  0  0  0  0
   56.0340   78.7200   27.8980 N   0  0  0  0  0  0  0  0  0  0  0  0
   56.6620   78.2370   28.9860 C   0  0  0  0  0  0  0  0  0  0  0  0
   57.9600   78.6720   29.1620 N   0  0  0  0  0  0  0  0  0  0  0  0
   58.5490   79.8250   29.6450 C   0  0  0  0  0  0  0  0  0  0  0  0
   58.9770   80.8790   28.8490 C   0  0  0  0  0  0  0  0  0  0  0  0
   59.5580   82.0010   29.4420 C   0  0  0  0  0  0  0  0  0  0  0  0
   59.7130   82.0510   30.8250 C   0  0  0  0  0  0  0  0  0  0  0  0
   59.2500   80.9640   31.5600 C   0  0  0  0  0  0  0  0  0  0  0  0
   58.6830   79.8700   30.9900 N   0  0  0  0  0  0  0  0  0  0  0  0
   59.4170   80.9370   33.0540 C   0  0  0  0  0  0  0  0  0  0  0  0
   59.6860   82.3300   33.6310 C   0  0  0  0  0  0  0  0  0  0  0  0
   60.7620   83.0010   32.8750 N   0  0  0  0  0  0  0  0  0  0  0  0
   61.1840   84.2610   33.5290 C   0  0  0  0  0  0  0  0  0  0  0  0
   62.6210   84.2760   34.1260 C   0  0  1  0  0  0  0  0  0  0  0  0
   63.1030   82.9570   34.7700 C   0  0  0  0  0  0  0  0  0  0  0  0
   63.4820   81.9300   33.7810 N   0  0  0  0  0  0  0  0  0  0  0  0
   64.5050   82.5170   32.8960 C   0  0  0  0  0  0  0  0  0  0  0  0
   64.0160   83.8120   32.2290 C   0  0  0  0  0  0  0  0  0  0  0  0
   63.5900   84.7880   33.1880 O   0  0  0  0  0  0  0  0  0  0  0  0
   60.2800   83.2690   31.5030 C   0  0  0  0  0  0  0  0  0  0  0  0
   56.0760   77.3890   29.8460 N   0  0  0  0  0  0  0  0  0  0  0  0
   54.8050   77.0240   29.5860 C   0  0  0  0  0  0  0  0  0  0  0  0
   54.0930   77.4750   28.5050 C   0  0  0  0  0  0  0  0  0  0  0  0
   52.8370   77.0590   28.3010 F   0  0  0  0  0  0  0  0  0  0  0  0
   53.8470   80.3100   26.3480 C   0  0  0  0  0  0  0  0  0  0  0  0
   53.2650   80.8140   25.1710 C   0  0  0  0  0  0  0  0  0  0  0  0
   52.8620   82.0740   24.7660 N   0  0  0  0  0  0  0  0  0  0  0  0
   52.9440   83.3140   25.5340 C   0  0  0  0  0  0  0  0  0  0  0  0
   54.3860   83.7900   25.7220 C   0  0  0  0  0  0  0  0  0  0  0  0
   52.1850   83.2350   26.8590 C   0  0  0  0  0  0  0  0  0  0  0  0
   51.4360   83.8703   23.3671 H   0  0  0  0  0  0  0  0  0  0  0  0
   52.6062   83.5067   22.0537 H   0  0  0  0  0  0  0  0  0  0  0  0
   50.9864   82.7304   22.0537 H   0  0  0  0  0  0  0  0  0  0  0  0
   54.0822   77.0353   25.3912 H   0  0  0  0  0  0  0  0  0  0  0  0
   58.6400   77.9960   28.8490 H   0  0  0  0  0  0  0  0  0  0  0  0
   58.8588   80.8300   27.7565 H   0  0  0  0  0  0  0  0  0  0  0  0
   59.8925   82.8434   28.8187 H   0  0  0  0  0  0  0  0  0  0  0  0
   58.4971   80.5378   33.5062 H   0  0  0  0  0  0  0  0  0  0  0  0
   60.2849   80.3021   33.2855 H   0  0  0  0  0  0  0  0  0  0  0  0
   58.7679   82.9324   33.5668 H   0  0  0  0  0  0  0  0  0  0  0  0
   59.9980   82.2273   34.6808 H   0  0  0  0  0  0  0  0  0  0  0  0
   61.1229   85.0647   32.7805 H   0  0  0  0  0  0  0  0  0  0  0  0
   60.5071   84.3893   34.3865 H   0  0  0  0  0  0  0  0  0  0  0  0
   62.5383   84.9736   34.9725 H   0  0  0  0  0  0  0  0  0  0  0  0
   63.9781   83.1752   35.3998 H   0  0  0  0  0  0  0  0  0  0  0  0
   62.2629   82.5531   35.3540 H   0  0  0  0  0  0  0  0  0  0  0  0
   62.6530   81.7680   33.1990 H   0  0  0  0  0  0  0  0  0  0  0  0
   65.4027   82.7412   33.4909 H   0  0  0  0  0  0  0  0  0  0  0  0
   64.7251   81.7884   32.1018 H   0  0  0  0  0  0  0  0  0  0  0  0
   64.8380   84.2359   31.6335 H   0  0  0  0  0  0  0  0  0  0  0  0
   63.1517   83.5604   31.5968 H   0  0  0  0  0  0  0  0  0  0  0  0
   59.4956   84.0386   31.5522 H   0  0  0  0  0  0  0  0  0  0  0  0
   61.1464   83.5990   30.9109 H   0  0  0  0  0  0  0  0  0  0  0  0
   54.3122   76.3262   30.2790 H   0  0  0  0  0  0  0  0  0  0  0  0
   54.0732   80.9838   27.1875 H   0  0  0  0  0  0  0  0  0  0  0  0
   52.4366   84.0810   24.9305 H   0  0  0  0  0  0  0  0  0  0  0  0
   54.6105   83.8641   26.7963 H   0  0  0  0  0  0  0  0  0  0  0  0
   55.0736   83.0712   25.2524 H   0  0  0  0  0  0  0  0  0  0  0  0
   54.5105   84.7769   25.2524 H   0  0  0  0  0  0  0  0  0  0  0  0
   52.8969   83.3091   27.6943 H   0  0  0  0  0  0  0  0  0  0  0  0
   51.4631   84.0629   26.9179 H   0  0  0  0  0  0  0  0  0  0  0  0
   51.6490   82.2762   26.9179 H   0  0  0  0  0  0  0  0  0  0  0  0
  1  2  1  0
  2  3  2  0
  3  4  1  0
  4  5  2  0
  5  6  1  0
  5  7  1  0
  7  8  2  0
  8  9  1  0
  9 10  2  0
 10 11  1  0
 11 12  1  0
 12 13  1  0
 13 14  1  0
 14 15  2  0
 15 16  1  0
 16 17  2  0
 17 18  1  0
 17 19  1  0
 19 20  1  0
 20 21  1  0
 21 22  1  0
 22 23  1  0
 23 24  1  0
 24 25  1  0
 25 26  1  0
 26 27  1  0
 27 28  1  0
 21 29  1  0
 11 30  2  0
 30 31  1  0
 31 32  2  0
 32 33  1  0
  8 34  1  0
 34 35  2  0
 35 36  1  0
 36 37  1  0
 37 38  1  0
 37 39  1  0
 36  2  1  0
 35  4  1  0
 32  9  1  0
 18 13  2  0
 28 23  1  0
 29 16  1  0
  1 40  1  0
  1 41  1  0
  1 42  1  0
  7 43  1  0
 12 44  1  0
 14 45  1  0
 15 46  1  0
 19 47  1  0
 19 48  1  0
 20 49  1  0
 20 50  1  0
 22 51  1  0
 22 52  1  0
 23 53  1  1
 24 54  1  0
 24 55  1  0
 25 56  1  0
 26 57  1  0
 26 58  1  0
 27 59  1  0
 27 60  1  0
 29 61  1  0
 29 62  1  0
 31 63  1  0
 34 64  1  0
 37 65  1  0
 38 66  1  0
 38 67  1  0
 38 68  1  0
 39 69  1  0
 39 70  1  0
 39 71  1  0
M  END
>  <meeko>  (1) 
{"is_sidechain": false}

>  <smiles>  (1) 
Cc1nc2c(F)cc(-c3nc(Nc4ccc5c(n4)CCN(C[C@H]4CNCCO4)C5)ncc3F)cc2n1C(C)C

>  <vina_score>  (1) 
-9.133

>  <job_id>  (1) 
6e16b7e97820064a

$$$$
