
     RDKit          3D

 42 43  0  0  0  0  0  0  0  0999 V2000
   59.7590   84.5520   32.9050 C   0  0  0  0  0  0  0  0  0  0  0  0
   61.1170   84.0290   32.9660 N   0  0  0  0  0  0  0  0  0  0  0  0
   62.0600   84.8030   33.7560 C   0  0  0  0  0  0  0  0  0  0  0  0
   61.4750   82.7250   32.6260 C   0  0  0  0  0  0  0  0  0  0  0  0
   62.4990   82.1740   33.0230 O   0  0  0  0  0  0  0  0  0  0  0  0
   60.5980   81.9540   31.7150 C   0  0  0  0  0  0  0  0  0  0  0  0
   59.7370   80.9940   32.2540 C   0  0  0  0  0  0  0  0  0  0  0  0
   58.9300   80.2320   31.4050 C   0  0  0  0  0  0  0  0  0  0  0  0
   58.9880   80.4220   30.0170 C   0  0  0  0  0  0  0  0  0  0  0  0
   58.1130   79.5780   29.1520 C   0  0  0  0  0  0  0  0  0  0  0  0
   58.5000   79.3150   28.0200 O   0  0  0  0  0  0  0  0  0  0  0  0
   56.9330   79.1580   29.7400 N   0  0  0  0  0  0  0  0  0  0  0  0
   55.9280   78.3560   29.1570 C   0  0  0  0  0  0  0  0  0  0  0  0
   55.7120   77.0910   29.7240 C   0  0  0  0  0  0  0  0  0  0  0  0
   54.7270   76.2370   29.2180 C   0  0  0  0  0  0  0  0  0  0  0  0
   53.9460   76.6380   28.1380 C   0  0  0  0  0  0  0  0  0  0  0  0
   54.1630   77.8940   27.5700 C   0  0  0  0  0  0  0  0  0  0  0  0
   53.1800   78.4190   26.1860 S   0  0  0  0  0  0  0  0  0  0  0  0
   54.3610   79.0480   25.0200 C   0  0  0  0  0  0  0  0  0  0  0  0
   52.5620   77.2320   25.6300 O   0  0  0  0  0  0  0  0  0  0  0  0
   52.3730   79.5410   26.6270 O   0  0  0  0  0  0  0  0  0  0  0  0
   55.1540   78.7500   28.0660 C   0  0  0  0  0  0  0  0  0  0  0  0
   59.8860   81.3570   29.4780 C   0  0  0  0  0  0  0  0  0  0  0  0
   60.6920   82.1210   30.3270 C   0  0  0  0  0  0  0  0  0  0  0  0
   59.3766   84.6993   33.9258 H   0  0  0  0  0  0  0  0  0  0  0  0
   59.7602   85.5140   32.3716 H   0  0  0  0  0  0  0  0  0  0  0  0
   59.1146   83.8377   32.3716 H   0  0  0  0  0  0  0  0  0  0  0  0
   61.8622   84.6406   34.8258 H   0  0  0  0  0  0  0  0  0  0  0  0
   63.0856   84.4828   33.5200 H   0  0  0  0  0  0  0  0  0  0  0  0
   61.9459   85.8713   33.5200 H   0  0  0  0  0  0  0  0  0  0  0  0
   59.6948   80.8389   33.3422 H   0  0  0  0  0  0  0  0  0  0  0  0
   58.2467   79.4804   31.8271 H   0  0  0  0  0  0  0  0  0  0  0  0
   56.7760   79.4190   30.7040 H   0  0  0  0  0  0  0  0  0  0  0  0
   56.3254   76.7668   30.5776 H   0  0  0  0  0  0  0  0  0  0  0  0
   54.5694   75.2482   29.6736 H   0  0  0  0  0  0  0  0  0  0  0  0
   53.1671   75.9728   27.7370 H   0  0  0  0  0  0  0  0  0  0  0  0
   55.2064   79.4982   25.5610 H   0  0  0  0  0  0  0  0  0  0  0  0
   54.7265   78.2251   24.3882 H   0  0  0  0  0  0  0  0  0  0  0  0
   53.8821   79.8105   24.3882 H   0  0  0  0  0  0  0  0  0  0  0  0
   55.3215   79.7305   27.5963 H   0  0  0  0  0  0  0  0  0  0  0  0
   59.9553   81.4883   28.3881 H   0  0  0  0  0  0  0  0  0  0  0  0
   61.3985   82.8517   29.9063 H   0  0  0  0  0  0  0  0  0  0  0  0
  1  2  1  0
  2  3  1  0
  2  4  1  0
  4  5  2  0
  4  6  1  0
  6  7  1  0
  7  8  2  0
  8  9  1  0
  9 10  1  0
 10 11  2  0
 10 12  1  0
 12 13  1  0
 13 14  1  0
 14 15  2  0
 15 16  1  0
 16 17  2  0
 17 18  1  0
 18 19  1  0
 18 20  2  0
 18 21  2  0
 17 22  1  0
  9 23  2  0
 23 24  1  0
 24  6  2  0
 22 13  2  0
  1 25  1  0
  1 26  1  0
  1 27  1  0
  3 28  1  0
  3 29  1  0
  3 30  1  0
  7 31  1  0
  8 32  1  0
 12 33  1  0
 14 34  1  0
 15 35  1  0
 16 36  1  0
 19 37  1  0
 19 38  1  0
 19 39  1  0
 22 40  1  0
 23 41  1  0
 24 42  1  0
M  END
>  <meeko>  (1) 
{"is_sidechain": false}

>  <smiles>  (1) 
CN(C)C(=O)c1ccc(C(=O)Nc2cccc(S(C)(=O)=O)c2)cc1

>  <vina_score>  (1) 
-7.783

>  <job_id>  (1) 
6e4031ddee1f849c

$$$$
