
     RDKit          3D

 56 58  0  0  0  0  0  0  0  0999 V2000
   66.5180   81.3560   30.6430 C   0  0  0  0  0  0  0  0  0  0  0  0
   65.4800   82.3290   30.6290 O   0  0  0  0  0  0  0  0  0  0  0  0
   64.2180   81.8000   31.0410 C   0  0  0  0  0  0  0  0  0  0  0  0
   63.1290   82.8770   31.0520 C   0  0  0  0  0  0  0  0  0  0  0  0
   62.1720   82.6100   32.1310 N   0  0  0  0  0  0  0  0  0  0  0  0
   60.5980   83.1680   32.0000 S   0  0  0  0  0  0  0  0  0  0  0  0
   60.0460   83.1560   33.3350 O   0  0  0  0  0  0  0  0  0  0  0  0
   60.6180   84.3660   31.1900 O   0  0  0  0  0  0  0  0  0  0  0  0
   59.8070   81.8790   31.0710 C   0  0  0  0  0  0  0  0  0  0  0  0
   59.1130   80.8650   31.7290 C   0  0  0  0  0  0  0  0  0  0  0  0
   58.5000   79.8560   30.9800 C   0  0  0  0  0  0  0  0  0  0  0  0
   58.5770   79.8330   29.5750 C   0  0  0  0  0  0  0  0  0  0  0  0
   57.9330   78.7970   28.8920 N   0  0  0  0  0  0  0  0  0  0  0  0
   56.6070   78.3920   28.7700 C   0  0  0  0  0  0  0  0  0  0  0  0
   56.0260   77.5780   29.6630 N   0  0  0  0  0  0  0  0  0  0  0  0
   54.7440   77.2320   29.4470 C   0  0  0  0  0  0  0  0  0  0  0  0
   54.0160   77.6720   28.3740 C   0  0  0  0  0  0  0  0  0  0  0  0
   54.6870   78.5150   27.5190 C   0  0  0  0  0  0  0  0  0  0  0  0
   54.0520   79.0440   26.3230 C   0  0  0  0  0  0  0  0  0  0  0  0
   53.3720   78.3470   25.3420 C   0  0  0  0  0  0  0  0  0  0  0  0
   52.9100   79.1720   24.3630 N   0  0  0  0  0  0  0  0  0  0  0  0
   53.2980   80.3820   24.7050 C   0  0  0  0  0  0  0  0  0  0  0  0
   53.0370   81.6050   23.8990 C   0  0  0  0  0  0  0  0  0  0  0  0
   53.9780   80.3660   25.9160 N   0  0  0  0  0  0  0  0  0  0  0  0
   54.4550   81.5680   26.6010 C   0  0  0  0  0  0  0  0  0  0  0  0
   55.5530   82.3370   25.8630 C   0  0  0  0  0  0  0  0  0  0  0  0
   53.3090   82.4770   27.0490 C   0  0  0  0  0  0  0  0  0  0  0  0
   55.9700   78.8770   27.6940 N   0  0  0  0  0  0  0  0  0  0  0  0
   59.2940   80.8570   28.9440 C   0  0  0  0  0  0  0  0  0  0  0  0
   59.9120   81.8730   29.6810 C   0  0  0  0  0  0  0  0  0  0  0  0
   66.7780   81.1122   31.6836 H   0  0  0  0  0  0  0  0  0  0  0  0
   66.1750   80.4465   30.1281 H   0  0  0  0  0  0  0  0  0  0  0  0
   67.4035   81.7570   30.1281 H   0  0  0  0  0  0  0  0  0  0  0  0
   63.9221   81.0009   30.3454 H   0  0  0  0  0  0  0  0  0  0  0  0
   64.3265   81.4114   32.0643 H   0  0  0  0  0  0  0  0  0  0  0  0
   63.5921   83.8620   31.2110 H   0  0  0  0  0  0  0  0  0  0  0  0
   62.5994   82.8656   30.0879 H   0  0  0  0  0  0  0  0  0  0  0  0
   62.2660   81.7500   32.6680 H   0  0  0  0  0  0  0  0  0  0  0  0
   59.0482   80.8587   32.8271 H   0  0  0  0  0  0  0  0  0  0  0  0
   57.9448   79.0620   31.5009 H   0  0  0  0  0  0  0  0  0  0  0  0
   58.5130   78.1650   28.3590 H   0  0  0  0  0  0  0  0  0  0  0  0
   54.2556   76.5613   30.1693 H   0  0  0  0  0  0  0  0  0  0  0  0
   52.9705   77.3730   28.2079 H   0  0  0  0  0  0  0  0  0  0  0  0
   53.2223   77.2573   25.3514 H   0  0  0  0  0  0  0  0  0  0  0  0
   52.8554   82.4559   24.5721 H   0  0  0  0  0  0  0  0  0  0  0  0
   53.9097   81.8191   23.2645 H   0  0  0  0  0  0  0  0  0  0  0  0
   52.1529   81.4442   23.2645 H   0  0  0  0  0  0  0  0  0  0  0  0
   54.9482   81.1882   27.5079 H   0  0  0  0  0  0  0  0  0  0  0  0
   56.2258   82.8082   26.5947 H   0  0  0  0  0  0  0  0  0  0  0  0
   56.1265   81.6421   25.2319 H   0  0  0  0  0  0  0  0  0  0  0  0
   55.0960   83.1135   25.2319 H   0  0  0  0  0  0  0  0  0  0  0  0
   53.2723   82.5061   28.1480 H   0  0  0  0  0  0  0  0  0  0  0  0
   53.4735   83.4929   26.6606 H   0  0  0  0  0  0  0  0  0  0  0  0
   52.3572   82.0856   26.6606 H   0  0  0  0  0  0  0  0  0  0  0  0
   59.3729   80.8627   27.8468 H   0  0  0  0  0  0  0  0  0  0  0  0
   60.4780   82.6633   29.1661 H   0  0  0  0  0  0  0  0  0  0  0  0
  1  2  1  0
  2  3  1  0
  3  4  1  0
  4  5  1  0
  5  6  1  0
  6  7  2  0
  6  8  2  0
  6  9  1  0
  9 10  1  0
 10 11  2  0
 11 12  1  0
 12 13  1  0
 13 14  1  0
 14 15  2  0
 15 16  1  0
 16 17  2  0
 17 18  1  0
 18 19  1  0
 19 20  2  0
 20 21  1  0
 21 22  2  0
 22 23  1  0
 22 24  1  0
 24 25  1  0
 25 26  1  0
 25 27  1  0
 18 28  2  0
 12 29  2  0
 29 30  1  0
 30  9  2  0
 28 14  1  0
 24 19  1  0
  1 31  1  0
  1 32  1  0
  1 33  1  0
  3 34  1  0
  3 35  1  0
  4 36  1  0
  4 37  1  0
  5 38  1  0
 10 39  1  0
 11 40  1  0
 13 41  1  0
 16 42  1  0
 17 43  1  0
 20 44  1  0
 23 45  1  0
 23 46  1  0
 23 47  1  0
 25 48  1  0
 26 49  1  0
 26 50  1  0
 26 51  1  0
 27 52  1  0
 27 53  1  0
 27 54  1  0
 29 55  1  0
 30 56  1  0
M  END
>  <meeko>  (1) 
{"is_sidechain": false}

>  <smiles>  (1) 
COCCNS(=O)(=O)c1ccc(Nc2nccc(-c3cnc(C)n3C(C)C)n2)cc1

>  <vina_score>  (1) 
-8.345

>  <job_id>  (1) 
6e844194ca069484

$$$$
