
     RDKit          3D

 64 69  0  0  0  0  0  0  0  0999 V2000
   56.1230   82.1900   26.5940 C   0  0  0  0  0  0  0  0  0  0  0  0
   55.0480   81.3460   26.1290 N   0  0  0  0  0  0  0  0  0  0  0  0
   54.2610   81.7900   25.1250 N   0  0  0  0  0  0  0  0  0  0  0  0
   53.3540   80.8150   24.9260 C   0  0  0  0  0  0  0  0  0  0  0  0
   52.3210   80.9430   23.8870 C   0  0  0  0  0  0  0  0  0  0  0  0
   52.7870   80.9800   22.5950 N   0  0  0  0  0  0  0  0  0  0  0  0
   51.1120   80.9790   24.0960 O   0  0  0  0  0  0  0  0  0  0  0  0
   53.5780   79.7460   25.8380 C   0  0  0  0  0  0  0  0  0  0  0  0
   54.6850   80.1130   26.5820 C   0  0  0  0  0  0  0  0  0  0  0  0
   55.2660   79.2820   27.6200 C   0  0  0  0  0  0  0  0  0  0  0  0
   56.4660   79.6240   28.1100 N   0  0  0  0  0  0  0  0  0  0  0  0
   56.9650   78.8340   29.0720 C   0  0  0  0  0  0  0  0  0  0  0  0
   58.1850   79.1050   29.6840 N   0  0  0  0  0  0  0  0  0  0  0  0
   58.7380   80.2560   30.2520 C   0  0  0  0  0  0  0  0  0  0  0  0
   59.5950   81.0450   29.4730 C   0  0  0  0  0  0  0  0  0  0  0  0
   60.2180   82.1840   30.0000 C   0  0  0  0  0  0  0  0  0  0  0  0
   59.9930   82.5780   31.3200 C   0  0  0  0  0  0  0  0  0  0  0  0
   60.6450   83.6830   31.9060 N   0  0  0  0  0  0  0  0  0  0  0  0
   61.9970   83.7850   32.0650 N   0  0  0  0  0  0  0  0  0  0  0  0
   62.8440   84.5320   31.2190 C   0  0  0  0  0  0  0  0  0  0  0  0
   63.7970   83.9330   30.3910 C   0  0  0  0  0  0  0  0  0  0  0  0
   64.5800   84.7010   29.5190 C   0  0  0  0  0  0  0  0  0  0  0  0
   64.4170   86.0910   29.4320 C   0  0  0  0  0  0  0  0  0  0  0  0
   65.2380   86.8980   28.5150 C   0  0  0  0  0  0  0  0  0  0  0  0
   65.2840   86.6090   27.1410 C   0  0  0  0  0  0  0  0  0  0  0  0
   66.0630   87.3750   26.2690 C   0  0  0  0  0  0  0  0  0  0  0  0
   66.8100   88.4440   26.7570 C   0  0  0  0  0  0  0  0  0  0  0  0
   66.7790   88.7480   28.1160 C   0  0  0  0  0  0  0  0  0  0  0  0
   65.9980   87.9810   28.9850 C   0  0  0  0  0  0  0  0  0  0  0  0
   63.4400   86.6850   30.2440 C   0  0  0  0  0  0  0  0  0  0  0  0
   62.6590   85.9150   31.1150 C   0  0  0  0  0  0  0  0  0  0  0  0
   59.1710   81.7700   32.1130 C   0  0  0  0  0  0  0  0  0  0  0  0
   58.5530   80.6290   31.5840 C   0  0  0  0  0  0  0  0  0  0  0  0
   56.3190   77.7550   29.5580 N   0  0  0  0  0  0  0  0  0  0  0  0
   55.1250   77.4430   29.0210 C   0  0  0  0  0  0  0  0  0  0  0  0
   54.5390   78.1710   28.0190 C   0  0  0  0  0  0  0  0  0  0  0  0
   53.1710   77.8700   27.4590 C   0  0  0  0  0  0  0  0  0  0  0  0
   52.9350   78.4120   26.0250 C   0  0  0  0  0  0  0  0  0  0  0  0
   56.1333   82.1981   27.6939 H   0  0  0  0  0  0  0  0  0  0  0  0
   57.0820   81.8011   26.2212 H   0  0  0  0  0  0  0  0  0  0  0  0
   55.9728   83.2139   26.2212 H   0  0  0  0  0  0  0  0  0  0  0  0
   52.0610   80.8640   21.9000 H   0  0  0  0  0  0  0  0  0  0  0  0
   53.6820   80.5590   22.3950 H   0  0  0  0  0  0  0  0  0  0  0  0
   58.8240   78.3470   29.4950 H   0  0  0  0  0  0  0  0  0  0  0  0
   59.7825   80.7643   28.4261 H   0  0  0  0  0  0  0  0  0  0  0  0
   60.8936   82.7757   29.3648 H   0  0  0  0  0  0  0  0  0  0  0  0
   60.1600   84.5670   31.7530 H   0  0  0  0  0  0  0  0  0  0  0  0
   62.4490   82.9660   32.4710 H   0  0  0  0  0  0  0  0  0  0  0  0
   63.9346   82.8421   30.4243 H   0  0  0  0  0  0  0  0  0  0  0  0
   65.3355   84.2050   28.8919 H   0  0  0  0  0  0  0  0  0  0  0  0
   64.6978   85.7666   26.7451 H   0  0  0  0  0  0  0  0  0  0  0  0
   66.0859   87.1330   25.1962 H   0  0  0  0  0  0  0  0  0  0  0  0
   67.4231   89.0469   26.0710 H   0  0  0  0  0  0  0  0  0  0  0  0
   67.3688   89.5911   28.5050 H   0  0  0  0  0  0  0  0  0  0  0  0
   65.9784   88.2302   30.0562 H   0  0  0  0  0  0  0  0  0  0  0  0
   63.2846   87.7729   30.1961 H   0  0  0  0  0  0  0  0  0  0  0  0
   61.8878   86.4054   31.7272 H   0  0  0  0  0  0  0  0  0  0  0  0
   59.0073   82.0345   33.1681 H   0  0  0  0  0  0  0  0  0  0  0  0
   57.9094   80.0153   32.2314 H   0  0  0  0  0  0  0  0  0  0  0  0
   54.5934   76.5601   29.4055 H   0  0  0  0  0  0  0  0  0  0  0  0
   53.0388   76.7781   27.4407 H   0  0  0  0  0  0  0  0  0  0  0  0
   52.4450   78.3776   28.1111 H   0  0  0  0  0  0  0  0  0  0  0  0
   53.3612   77.7037   25.2993 H   0  0  0  0  0  0  0  0  0  0  0  0
   51.8518   78.5232   25.8692 H   0  0  0  0  0  0  0  0  0  0  0  0
  1  2  1  0
  2  3  1  0
  3  4  2  0
  4  5  1  0
  5  6  1  0
  5  7  2  0
  4  8  1  0
  8  9  2  0
  9 10  1  0
 10 11  2  0
 11 12  1  0
 12 13  1  0
 13 14  1  0
 14 15  1  0
 15 16  2  0
 16 17  1  0
 17 18  1  0
 18 19  1  0
 19 20  1  0
 20 21  1  0
 21 22  2  0
 22 23  1  0
 23 24  1  0
 24 25  2  0
 25 26  1  0
 26 27  2  0
 27 28  1  0
 28 29  2  0
 23 30  2  0
 30 31  1  0
 17 32  2  0
 32 33  1  0
 12 34  2  0
 34 35  1  0
 35 36  2  0
 36 37  1  0
 37 38  1  0
  9  2  1  0
 36 10  1  0
 38  8  1  0
 33 14  2  0
 31 20  2  0
 29 24  1  0
  1 39  1  0
  1 40  1  0
  1 41  1  0
  6 42  1  0
  6 43  1  0
 13 44  1  0
 15 45  1  0
 16 46  1  0
 18 47  1  0
 19 48  1  0
 21 49  1  0
 22 50  1  0
 25 51  1  0
 26 52  1  0
 27 53  1  0
 28 54  1  0
 29 55  1  0
 30 56  1  0
 31 57  1  0
 32 58  1  0
 33 59  1  0
 35 60  1  0
 37 61  1  0
 37 62  1  0
 38 63  1  0
 38 64  1  0
M  END
>  <meeko>  (1) 
{"is_sidechain": false}

>  <smiles>  (1) 
Cn1nc(C(N)=O)c2c1-c1nc(Nc3ccc(NNc4ccc(-c5ccccc5)cc4)cc3)ncc1CC2

>  <vina_score>  (1) 
-9.936

>  <job_id>  (1) 
6eb027ceb6c290cc

$$$$
