
     RDKit          3D

 47 49  0  0  0  0  0  0  0  0999 V2000
   65.5780   84.3510   33.1530 C   0  0  0  0  0  0  0  0  0  0  0  0
   64.6860   83.2370   32.6620 C   0  0  0  0  0  0  0  0  0  0  0  0
   65.1260   82.1040   32.5110 O   0  0  0  0  0  0  0  0  0  0  0  0
   63.3850   83.6620   32.4570 N   0  0  0  0  0  0  0  0  0  0  0  0
   62.2910   82.8930   32.0100 C   0  0  0  0  0  0  0  0  0  0  0  0
   61.5020   82.1000   32.8410 C   0  0  0  0  0  0  0  0  0  0  0  0
   60.4310   81.3640   32.3160 C   0  0  0  0  0  0  0  0  0  0  0  0
   60.1230   81.4000   30.9480 C   0  0  0  0  0  0  0  0  0  0  0  0
   58.9990   80.6230   30.4000 C   0  0  0  0  0  0  0  0  0  0  0  0
   58.1700   79.8590   31.2350 C   0  0  0  0  0  0  0  0  0  0  0  0
   57.1020   79.1180   30.7140 C   0  0  0  0  0  0  0  0  0  0  0  0
   56.8320   79.1160   29.3390 C   0  0  0  0  0  0  0  0  0  0  0  0
   55.6950   78.3490   28.7870 C   0  0  0  0  0  0  0  0  0  0  0  0
   55.0600   78.7360   27.6660 C   0  0  0  0  0  0  0  0  0  0  0  0
   53.8820   78.0330   27.0580 C   0  0  0  0  0  0  0  0  0  0  0  0
   53.4120   76.9180   27.8760 N   0  0  0  0  0  0  0  0  0  0  0  0
   52.1910   76.2910   27.6490 C   0  0  0  0  0  0  0  0  0  0  0  0
   52.1100   75.3570   26.4670 C   0  0  0  0  0  0  0  0  0  0  0  0
   51.1990   76.4800   28.3530 O   0  0  0  0  0  0  0  0  0  0  0  0
   54.4280   76.1870   28.6300 C   0  0  0  0  0  0  0  0  0  0  0  0
   55.2410   77.1170   29.5300 C   0  0  0  0  0  0  0  0  0  0  0  0
   57.6510   79.8830   28.5030 C   0  0  0  0  0  0  0  0  0  0  0  0
   58.7200   80.6220   29.0250 C   0  0  0  0  0  0  0  0  0  0  0  0
   60.9230   82.2010   30.1210 C   0  0  0  0  0  0  0  0  0  0  0  0
   61.9920   82.9370   30.6440 C   0  0  0  0  0  0  0  0  0  0  0  0
   65.5838   84.3583   34.2530 H   0  0  0  0  0  0  0  0  0  0  0  0
   66.6012   84.1920   32.7820 H   0  0  0  0  0  0  0  0  0  0  0  0
   65.1991   85.3147   32.7820 H   0  0  0  0  0  0  0  0  0  0  0  0
   63.1900   84.6350   32.6520 H   0  0  0  0  0  0  0  0  0  0  0  0
   61.7215   82.0513   33.9178 H   0  0  0  0  0  0  0  0  0  0  0  0
   59.8199   80.7459   32.9901 H   0  0  0  0  0  0  0  0  0  0  0  0
   58.3623   79.8417   32.3179 H   0  0  0  0  0  0  0  0  0  0  0  0
   56.4669   78.5300   31.3929 H   0  0  0  0  0  0  0  0  0  0  0  0
   55.4328   79.6366   27.1561 H   0  0  0  0  0  0  0  0  0  0  0  0
   53.0611   78.7560   26.9422 H   0  0  0  0  0  0  0  0  0  0  0  0
   54.2012   77.6242   26.0879 H   0  0  0  0  0  0  0  0  0  0  0  0
   52.0201   74.3205   26.8242 H   0  0  0  0  0  0  0  0  0  0  0  0
   51.2306   75.6124   25.8575 H   0  0  0  0  0  0  0  0  0  0  0  0
   53.0202   75.4572   25.8575 H   0  0  0  0  0  0  0  0  0  0  0  0
   53.9322   75.4296   29.2549 H   0  0  0  0  0  0  0  0  0  0  0  0
   55.1158   75.7163   27.9121 H   0  0  0  0  0  0  0  0  0  0  0  0
   54.6177   77.4236   30.3830 H   0  0  0  0  0  0  0  0  0  0  0  0
   56.1333   76.5724   29.8723 H   0  0  0  0  0  0  0  0  0  0  0  0
   57.4525   79.9058   27.4213 H   0  0  0  0  0  0  0  0  0  0  0  0
   59.3520   81.2120   28.3450 H   0  0  0  0  0  0  0  0  0  0  0  0
   60.7068   82.2517   29.0436 H   0  0  0  0  0  0  0  0  0  0  0  0
   62.6045   83.5575   29.9732 H   0  0  0  0  0  0  0  0  0  0  0  0
  1  2  1  0
  2  3  2  0
  2  4  1  0
  4  5  1  0
  5  6  1  0
  6  7  2  0
  7  8  1  0
  8  9  1  0
  9 10  1  0
 10 11  2  0
 11 12  1  0
 12 13  1  0
 13 14  2  0
 14 15  1  0
 15 16  1  0
 16 17  1  0
 17 18  1  0
 17 19  2  0
 16 20  1  0
 20 21  1  0
 12 22  2  0
 22 23  1  0
  8 24  2  0
 24 25  1  0
 25  5  2  0
 23  9  2  0
 21 13  1  0
  1 26  1  0
  1 27  1  0
  1 28  1  0
  4 29  1  0
  6 30  1  0
  7 31  1  0
 10 32  1  0
 11 33  1  0
 14 34  1  0
 15 35  1  0
 15 36  1  0
 18 37  1  0
 18 38  1  0
 18 39  1  0
 20 40  1  0
 20 41  1  0
 21 42  1  0
 21 43  1  0
 22 44  1  0
 23 45  1  0
 24 46  1  0
 25 47  1  0
M  END
>  <meeko>  (1) 
{"is_sidechain": false}

>  <smiles>  (1) 
CC(=O)Nc1ccc(-c2ccc(C3=CCN(C(C)=O)CC3)cc2)cc1

>  <vina_score>  (1) 
-7.696

>  <job_id>  (1) 
6ebf0520e4a31845

$$$$
