
     RDKit          3D

 38 39  0  0  0  0  0  0  0  0999 V2000
   58.1840   80.9820   34.0200 C   0  0  0  0  0  0  0  0  0  0  0  0
   58.1070   81.3440   32.5350 C   0  0  0  0  0  0  0  0  0  0  0  0
   58.1850   82.8650   32.3710 C   0  0  0  0  0  0  0  0  0  0  0  0
   59.2230   80.6210   31.7610 C   0  0  0  0  0  0  0  0  0  0  0  0
   58.8120   80.2390   30.3900 C   0  0  0  0  0  0  0  0  0  0  0  0
   59.3100   80.4650   29.1300 C   0  0  0  0  0  0  0  0  0  0  0  0
   58.5160   79.8520   28.1940 N   0  0  0  0  0  0  0  0  0  0  0  0
   57.5740   79.2710   28.9120 C   0  0  0  0  0  0  0  0  0  0  0  0
   56.4270   78.4420   28.4560 C   0  0  0  0  0  0  0  0  0  0  0  0
   55.4990   79.1910   27.5240 C   0  0  0  0  0  0  0  0  0  0  0  0
   54.1560   78.8050   27.3950 C   0  0  0  0  0  0  0  0  0  0  0  0
   53.3050   79.4840   26.5210 C   0  0  0  0  0  0  0  0  0  0  0  0
   53.8030   80.5440   25.7600 C   0  0  0  0  0  0  0  0  0  0  0  0
   52.7220   81.4240   24.6720 S   0  0  0  0  0  0  0  0  0  0  0  0
   53.3100   80.9820   23.1630 N   0  0  0  0  0  0  0  0  0  0  0  0
   52.9710   82.8410   24.7960 O   0  0  0  0  0  0  0  0  0  0  0  0
   51.3940   80.8610   24.7600 O   0  0  0  0  0  0  0  0  0  0  0  0
   55.1360   80.9430   25.8790 C   0  0  0  0  0  0  0  0  0  0  0  0
   55.9830   80.2610   26.7550 C   0  0  0  0  0  0  0  0  0  0  0  0
   57.6810   79.4800   30.2620 O   0  0  0  0  0  0  0  0  0  0  0  0
   57.9931   81.8796   34.6266 H   0  0  0  0  0  0  0  0  0  0  0  0
   57.4286   80.2163   34.2504 H   0  0  0  0  0  0  0  0  0  0  0  0
   59.1856   80.5900   34.2504 H   0  0  0  0  0  0  0  0  0  0  0  0
   57.1459   81.0109   32.1162 H   0  0  0  0  0  0  0  0  0  0  0  0
   58.2094   83.3400   33.3629 H   0  0  0  0  0  0  0  0  0  0  0  0
   59.0978   83.1276   31.8162 H   0  0  0  0  0  0  0  0  0  0  0  0
   57.3039   83.2196   31.8162 H   0  0  0  0  0  0  0  0  0  0  0  0
   60.0945   81.2888   31.6940 H   0  0  0  0  0  0  0  0  0  0  0  0
   59.4607   79.6960   32.3068 H   0  0  0  0  0  0  0  0  0  0  0  0
   60.2129   81.0514   28.9045 H   0  0  0  0  0  0  0  0  0  0  0  0
   56.8183   77.5595   27.9287 H   0  0  0  0  0  0  0  0  0  0  0  0
   55.8464   78.1595   29.3466 H   0  0  0  0  0  0  0  0  0  0  0  0
   53.7710   77.9614   27.9867 H   0  0  0  0  0  0  0  0  0  0  0  0
   52.2498   79.1863   26.4323 H   0  0  0  0  0  0  0  0  0  0  0  0
   54.1180   80.3690   23.2730 H   0  0  0  0  0  0  0  0  0  0  0  0
   53.4940   81.8160   22.6050 H   0  0  0  0  0  0  0  0  0  0  0  0
   55.5161   81.7885   25.2869 H   0  0  0  0  0  0  0  0  0  0  0  0
   57.0367   80.5643   26.8431 H   0  0  0  0  0  0  0  0  0  0  0  0
  1  2  1  0
  2  3  1  0
  2  4  1  0
  4  5  1  0
  5  6  2  0
  6  7  1  0
  7  8  2  0
  8  9  1  0
  9 10  1  0
 10 11  1  0
 11 12  2  0
 12 13  1  0
 13 14  1  0
 14 15  1  0
 14 16  2  0
 14 17  2  0
 13 18  2  0
 18 19  1  0
  8 20  1  0
 20  5  1  0
 19 10  2  0
  1 21  1  0
  1 22  1  0
  1 23  1  0
  2 24  1  0
  3 25  1  0
  3 26  1  0
  3 27  1  0
  4 28  1  0
  4 29  1  0
  6 30  1  0
  9 31  1  0
  9 32  1  0
 11 33  1  0
 12 34  1  0
 15 35  1  0
 15 36  1  0
 18 37  1  0
 19 38  1  0
M  END
>  <meeko>  (1) 
{"is_sidechain": false}

>  <smiles>  (1) 
CC(C)Cc1cnc(Cc2ccc(S(N)(=O)=O)cc2)o1

>  <vina_score>  (1) 
-7.801

>  <job_id>  (1) 
6f55df0a1559059c

$$$$
