
     RDKit          3D

 45 48  0  0  0  0  0  0  0  0999 V2000
   55.5600   77.1210   29.8950 C   0  0  0  0  0  0  0  0  0  0  0  0
   55.9240   78.0190   28.7980 N   0  0  0  0  0  0  0  0  0  0  0  0
   57.2580   78.3700   28.5300 C   0  0  0  0  0  0  0  0  0  0  0  0
   58.0140   77.8580   27.7050 O   0  0  0  0  0  0  0  0  0  0  0  0
   57.8490   79.4820   29.3130 C   0  0  0  0  0  0  0  0  0  0  0  0
   57.7830   79.4820   30.7090 C   0  0  0  0  0  0  0  0  0  0  0  0
   58.3650   80.5290   31.4290 C   0  0  0  0  0  0  0  0  0  0  0  0
   59.0360   81.5770   30.7720 C   0  0  0  0  0  0  0  0  0  0  0  0
   59.6540   82.6730   31.5350 C   0  0  0  0  0  0  0  0  0  0  0  0
   59.4600   82.7940   32.9160 C   0  0  0  0  0  0  0  0  0  0  0  0
   60.0620   83.8450   33.5910 C   0  0  0  0  0  0  0  0  0  0  0  0
   60.8380   84.7740   32.9950 N   0  0  0  0  0  0  0  0  0  0  0  0
   61.0180   84.6450   31.6650 C   0  0  0  0  0  0  0  0  0  0  0  0
   60.4570   83.6310   30.9050 C   0  0  0  0  0  0  0  0  0  0  0  0
   59.1100   81.5420   29.3690 C   0  0  0  0  0  0  0  0  0  0  0  0
   58.5290   80.4990   28.6420 C   0  0  0  0  0  0  0  0  0  0  0  0
   54.9240   78.5650   27.9930 C   0  0  0  0  0  0  0  0  0  0  0  0
   53.7940   78.0040   27.4270 C   0  0  0  0  0  0  0  0  0  0  0  0
   53.1510   79.0290   26.6890 C   0  0  0  0  0  0  0  0  0  0  0  0
   53.9230   80.1610   26.8390 C   0  0  0  0  0  0  0  0  0  0  0  0
   53.8270   81.5300   26.3530 C   0  0  0  0  0  0  0  0  0  0  0  0
   52.9010   81.9100   25.4050 C   0  0  0  0  0  0  0  0  0  0  0  0
   52.9350   83.2320   25.0460 C   0  0  0  0  0  0  0  0  0  0  0  0
   53.8030   84.1180   25.5670 N   0  0  0  0  0  0  0  0  0  0  0  0
   54.6500   83.6530   26.4890 C   0  0  0  0  0  0  0  0  0  0  0  0
   55.5600   84.5450   27.0190 N   0  0  0  0  0  0  0  0  0  0  0  0
   54.7170   82.3870   26.8990 N   0  0  0  0  0  0  0  0  0  0  0  0
   55.0000   79.8710   27.6210 O   0  0  0  0  0  0  0  0  0  0  0  0
   55.7608   77.6164   30.8564 H   0  0  0  0  0  0  0  0  0  0  0  0
   54.4905   76.8733   29.8265 H   0  0  0  0  0  0  0  0  0  0  0  0
   56.1552   76.1985   29.8265 H   0  0  0  0  0  0  0  0  0  0  0  0
   57.2756   78.6621   31.2384 H   0  0  0  0  0  0  0  0  0  0  0  0
   58.2975   80.5339   32.5269 H   0  0  0  0  0  0  0  0  0  0  0  0
   58.8388   82.0657   33.4580 H   0  0  0  0  0  0  0  0  0  0  0  0
   59.8973   83.9261   34.6756 H   0  0  0  0  0  0  0  0  0  0  0  0
   61.6470   85.3882   31.1532 H   0  0  0  0  0  0  0  0  0  0  0  0
   60.6402   83.5797   29.8216 H   0  0  0  0  0  0  0  0  0  0  0  0
   59.6335   82.3483   28.8344 H   0  0  0  0  0  0  0  0  0  0  0  0
   58.6076   80.4800   27.5450 H   0  0  0  0  0  0  0  0  0  0  0  0
   53.4583   76.9615   27.5299 H   0  0  0  0  0  0  0  0  0  0  0  0
   52.2197   78.9389   26.1106 H   0  0  0  0  0  0  0  0  0  0  0  0
   52.1838   81.2004   24.9667 H   0  0  0  0  0  0  0  0  0  0  0  0
   52.2157   83.5870   24.2933 H   0  0  0  0  0  0  0  0  0  0  0  0
   55.6580   84.3810   28.0100 H   0  0  0  0  0  0  0  0  0  0  0  0
   56.4000   84.5370   26.4590 H   0  0  0  0  0  0  0  0  0  0  0  0
  1  2  1  0
  2  3  1  0
  3  4  2  0
  3  5  1  0
  5  6  1  0
  6  7  2  0
  7  8  1  0
  8  9  1  0
  9 10  2  0
 10 11  1  0
 11 12  2  0
 12 13  1  0
 13 14  2  0
  8 15  2  0
 15 16  1  0
  2 17  1  0
 17 18  2  0
 18 19  1  0
 19 20  2  0
 20 21  1  0
 21 22  1  0
 22 23  2  0
 23 24  1  0
 24 25  2  0
 25 26  1  0
 25 27  1  0
 20 28  1  0
 16  5  2  0
 28 17  1  0
 14  9  1  0
 27 21  2  0
  1 29  1  0
  1 30  1  0
  1 31  1  0
  6 32  1  0
  7 33  1  0
 10 34  1  0
 11 35  1  0
 13 36  1  0
 14 37  1  0
 15 38  1  0
 16 39  1  0
 18 40  1  0
 19 41  1  0
 22 42  1  0
 23 43  1  0
 26 44  1  0
 26 45  1  0
M  END
>  <meeko>  (1) 
{"is_sidechain": false}

>  <smiles>  (1) 
CN(C(=O)c1ccc(-c2ccncc2)cc1)c1ccc(-c2ccnc(N)n2)o1

>  <vina_score>  (1) 
-7.968

>  <job_id>  (1) 
6fd6f7a07e5393dd

$$$$
