
     RDKit          3D

 50 52  0  0  0  0  0  0  0  0999 V2000
   52.9760   75.2730   28.3520 C   0  0  0  0  0  0  0  0  0  0  0  0
   52.2710   76.1670   27.3290 C   0  0  0  0  0  0  0  0  0  0  0  0
   51.8350   75.3580   26.1080 C   0  0  0  0  0  0  0  0  0  0  0  0
   53.1650   77.3220   26.9200 C   0  0  0  0  0  0  0  0  0  0  0  0
   54.2190   77.7190   27.7420 C   0  0  0  0  0  0  0  0  0  0  0  0
   55.0440   78.7830   27.3540 C   0  0  0  0  0  0  0  0  0  0  0  0
   56.1650   79.2250   28.1980 C   0  0  0  0  0  0  0  0  0  0  0  0
   57.0580   80.2140   27.7560 C   0  0  0  0  0  0  0  0  0  0  0  0
   58.1270   80.6320   28.5550 C   0  0  0  0  0  0  0  0  0  0  0  0
   58.3330   80.0680   29.8200 C   0  0  0  0  0  0  0  0  0  0  0  0
   59.4790   80.5310   30.6950 C   0  0  0  0  0  0  0  0  0  0  0  0
   59.3950   81.9480   31.0850 N   0  0  0  0  0  0  0  0  0  0  0  0
   58.4490   82.1980   32.1770 C   0  0  0  0  0  0  0  0  0  0  0  0
   58.5320   81.2870   33.4070 C   0  0  0  0  0  0  0  0  0  0  0  0
   59.7220   81.5330   34.3590 C   0  0  0  0  0  0  0  0  0  0  0  0
   60.5920   82.6090   33.9080 N   0  0  0  0  0  0  0  0  0  0  0  0
   61.3820   82.2780   32.7070 C   0  0  0  0  0  0  0  0  0  0  0  0
   60.7420   82.4970   31.3100 C   0  0  0  0  0  0  0  0  0  0  0  0
   57.4410   79.0860   30.2710 C   0  0  0  0  0  0  0  0  0  0  0  0
   56.3740   78.6690   29.4700 C   0  0  0  0  0  0  0  0  0  0  0  0
   54.7640   79.4110   26.1370 C   0  0  0  0  0  0  0  0  0  0  0  0
   53.6970   78.9600   25.3800 C   0  0  0  0  0  0  0  0  0  0  0  0
   52.8970   77.9360   25.7440 N   0  0  0  0  0  0  0  0  0  0  0  0
   52.7157   75.6031   29.3685 H   0  0  0  0  0  0  0  0  0  0  0  0
   52.6543   74.2306   28.2114 H   0  0  0  0  0  0  0  0  0  0  0  0
   54.0647   75.3429   28.2114 H   0  0  0  0  0  0  0  0  0  0  0  0
   51.3686   76.5823   27.8014 H   0  0  0  0  0  0  0  0  0  0  0  0
   51.3373   74.4345   26.4387 H   0  0  0  0  0  0  0  0  0  0  0  0
   51.1363   75.9547   25.5032 H   0  0  0  0  0  0  0  0  0  0  0  0
   52.7176   75.1025   25.5032 H   0  0  0  0  0  0  0  0  0  0  0  0
   54.4025   77.1979   28.6932 H   0  0  0  0  0  0  0  0  0  0  0  0
   56.9144   80.6679   26.7643 H   0  0  0  0  0  0  0  0  0  0  0  0
   58.8116   81.4102   28.1867 H   0  0  0  0  0  0  0  0  0  0  0  0
   59.4859   79.9196   31.6094 H   0  0  0  0  0  0  0  0  0  0  0  0
   60.3996   80.4158   30.1040 H   0  0  0  0  0  0  0  0  0  0  0  0
   58.6077   83.2309   32.5205 H   0  0  0  0  0  0  0  0  0  0  0  0
   57.4592   81.9936   31.7429 H   0  0  0  0  0  0  0  0  0  0  0  0
   57.6062   81.4198   33.9860 H   0  0  0  0  0  0  0  0  0  0  0  0
   58.6771   80.2710   33.0112 H   0  0  0  0  0  0  0  0  0  0  0  0
   59.3290   81.7921   35.3532 H   0  0  0  0  0  0  0  0  0  0  0  0
   60.3215   80.6111   34.3848 H   0  0  0  0  0  0  0  0  0  0  0  0
   61.2250   82.8900   34.6550 H   0  0  0  0  0  0  0  0  0  0  0  0
   62.2969   82.8877   32.7431 H   0  0  0  0  0  0  0  0  0  0  0  0
   61.5196   81.1885   32.7698 H   0  0  0  0  0  0  0  0  0  0  0  0
   60.6881   83.5823   31.1390 H   0  0  0  0  0  0  0  0  0  0  0  0
   61.3899   81.9423   30.6154 H   0  0  0  0  0  0  0  0  0  0  0  0
   57.5819   78.6385   31.2659 H   0  0  0  0  0  0  0  0  0  0  0  0
   55.6880   77.8937   29.8419 H   0  0  0  0  0  0  0  0  0  0  0  0
   55.3822   80.2506   25.7865 H   0  0  0  0  0  0  0  0  0  0  0  0
   53.4887   79.4658   24.4257 H   0  0  0  0  0  0  0  0  0  0  0  0
  1  2  1  0
  2  3  1  0
  2  4  1  0
  4  5  2  0
  5  6  1  0
  6  7  1  0
  7  8  1  0
  8  9  2  0
  9 10  1  0
 10 11  1  0
 11 12  1  0
 12 13  1  0
 13 14  1  0
 14 15  1  0
 15 16  1  0
 16 17  1  0
 17 18  1  0
 10 19  2  0
 19 20  1  0
  6 21  2  0
 21 22  1  0
 22 23  2  0
 23  4  1  0
 20  7  2  0
 18 12  1  0
  1 24  1  0
  1 25  1  0
  1 26  1  0
  2 27  1  0
  3 28  1  0
  3 29  1  0
  3 30  1  0
  5 31  1  0
  8 32  1  0
  9 33  1  0
 11 34  1  0
 11 35  1  0
 13 36  1  0
 13 37  1  0
 14 38  1  0
 14 39  1  0
 15 40  1  0
 15 41  1  0
 16 42  1  0
 17 43  1  0
 17 44  1  0
 18 45  1  0
 18 46  1  0
 19 47  1  0
 20 48  1  0
 21 49  1  0
 22 50  1  0
M  END
>  <meeko>  (1) 
{"is_sidechain": false}

>  <smiles>  (1) 
CC(C)c1cc(-c2ccc(CN3CCCNCC3)cc2)ccn1

>  <vina_score>  (1) 
-6.234

>  <job_id>  (1) 
6fe1f0e3733a02da

$$$$
