
     RDKit          3D

 36 37  0  0  0  0  0  0  0  0999 V2000
   55.9350   80.9740   26.1940 C   0  0  0  0  0  0  0  0  0  0  0  0
   54.7260   80.0540   26.1860 C   0  0  0  0  0  0  0  0  0  0  0  0
   54.3350   79.7190   27.5170 O   0  0  0  0  0  0  0  0  0  0  0  0
   54.0870   78.4030   27.8290 C   0  0  0  0  0  0  0  0  0  0  0  0
   53.0420   77.6350   27.3140 C   0  0  0  0  0  0  0  0  0  0  0  0
   52.9020   76.3100   27.7140 C   0  0  0  0  0  0  0  0  0  0  0  0
   51.8960   75.5780   27.2150 F   0  0  0  0  0  0  0  0  0  0  0  0
   53.7810   75.7330   28.6190 C   0  0  0  0  0  0  0  0  0  0  0  0
   54.8260   76.4920   29.1450 C   0  0  0  0  0  0  0  0  0  0  0  0
   54.9840   77.8280   28.7610 C   0  0  0  0  0  0  0  0  0  0  0  0
   56.0150   78.6610   29.2480 N   0  0  0  0  0  0  0  0  0  0  0  0
   57.3350   78.7090   28.8480 C   0  0  0  0  0  0  0  0  0  0  0  0
   57.8750   77.9850   28.0200 O   0  0  0  0  0  0  0  0  0  0  0  0
   58.1650   79.7350   29.5460 C   0  0  0  0  0  0  0  0  0  0  0  0
   58.9270   80.6160   28.7700 C   0  0  0  0  0  0  0  0  0  0  0  0
   59.7160   81.5910   29.3850 C   0  0  0  0  0  0  0  0  0  0  0  0
   59.7530   81.6970   30.7810 C   0  0  0  0  0  0  0  0  0  0  0  0
   60.5720   82.7690   31.4380 C   0  0  0  0  0  0  0  0  0  0  0  0
   58.9630   80.8350   31.5510 C   0  0  0  0  0  0  0  0  0  0  0  0
   58.1730   79.8570   30.9400 C   0  0  0  0  0  0  0  0  0  0  0  0
   56.2224   81.1927   27.2330 H   0  0  0  0  0  0  0  0  0  0  0  0
   56.7728   80.4830   25.6774 H   0  0  0  0  0  0  0  0  0  0  0  0
   55.6851   81.9124   25.6774 H   0  0  0  0  0  0  0  0  0  0  0  0
   53.8903   80.5611   25.6815 H   0  0  0  0  0  0  0  0  0  0  0  0
   54.9906   79.1289   25.6529 H   0  0  0  0  0  0  0  0  0  0  0  0
   52.3335   78.0744   26.5964 H   0  0  0  0  0  0  0  0  0  0  0  0
   53.6544   74.6826   28.9200 H   0  0  0  0  0  0  0  0  0  0  0  0
   55.5266   76.0399   29.8624 H   0  0  0  0  0  0  0  0  0  0  0  0
   55.7280   79.2320   30.0370 H   0  0  0  0  0  0  0  0  0  0  0  0
   58.9045   80.5404   27.6728 H   0  0  0  0  0  0  0  0  0  0  0  0
   60.3122   82.2801   28.7687 H   0  0  0  0  0  0  0  0  0  0  0  0
   60.4965   82.6701   32.5309 H   0  0  0  0  0  0  0  0  0  0  0  0
   61.6237   82.6661   31.1323 H   0  0  0  0  0  0  0  0  0  0  0  0
   60.1963   83.7566   31.1323 H   0  0  0  0  0  0  0  0  0  0  0  0
   58.9640   80.9282   32.6470 H   0  0  0  0  0  0  0  0  0  0  0  0
   57.5578   79.1835   31.5548 H   0  0  0  0  0  0  0  0  0  0  0  0
  1  2  1  0
  2  3  1  0
  3  4  1  0
  4  5  1  0
  5  6  2  0
  6  7  1  0
  6  8  1  0
  8  9  2  0
  9 10  1  0
 10 11  1  0
 11 12  1  0
 12 13  2  0
 12 14  1  0
 14 15  1  0
 15 16  2  0
 16 17  1  0
 17 18  1  0
 17 19  2  0
 19 20  1  0
 10  4  2  0
 20 14  2  0
  1 21  1  0
  1 22  1  0
  1 23  1  0
  2 24  1  0
  2 25  1  0
  5 26  1  0
  8 27  1  0
  9 28  1  0
 11 29  1  0
 15 30  1  0
 16 31  1  0
 18 32  1  0
 18 33  1  0
 18 34  1  0
 19 35  1  0
 20 36  1  0
M  END
>  <meeko>  (1) 
{"is_sidechain": false}

>  <smiles>  (1) 
CCOc1cc(F)ccc1NC(=O)c1ccc(C)cc1

>  <vina_score>  (1) 
-7.643

>  <job_id>  (1) 
6ff9dfff7439065b

$$$$
