
     RDKit          3D

 42 44  0  0  0  0  0  0  0  0999 V2000
   50.9420   80.9840   24.2170 O   0  0  0  0  0  0  0  0  0  0  0  0
   51.9240   81.0510   23.4780 C   0  0  0  0  0  0  0  0  0  0  0  0
   53.0870   80.3250   23.5700 N   0  0  0  0  0  0  0  0  0  0  0  0
   53.3210   79.4110   24.5530 C   0  0  0  0  0  0  0  0  0  0  0  0
   52.8820   78.1860   24.6670 N   0  0  0  0  0  0  0  0  0  0  0  0
   53.3790   77.6370   25.8330 C   0  0  0  0  0  0  0  0  0  0  0  0
   54.2000   78.4500   26.5990 C   0  0  0  0  0  0  0  0  0  0  0  0
   54.8900   78.1800   27.8660 C   0  0  0  0  0  0  0  0  0  0  0  0
   54.4540   77.2050   28.7410 C   0  0  0  0  0  0  0  0  0  0  0  0
   55.1850   77.0580   29.8950 C   0  0  0  0  0  0  0  0  0  0  0  0
   56.2650   77.8000   30.1880 N   0  0  0  0  0  0  0  0  0  0  0  0
   56.6140   78.7230   29.2780 C   0  0  0  0  0  0  0  0  0  0  0  0
   57.7820   79.5670   29.5370 C   0  0  0  0  0  0  0  0  0  0  0  0
   58.1130   80.0600   30.7420 C   0  0  0  0  0  0  0  0  0  0  0  0
   59.2940   80.8980   30.9920 C   0  0  0  0  0  0  0  0  0  0  0  0
   59.8890   81.6760   29.9890 C   0  0  0  0  0  0  0  0  0  0  0  0
   60.9930   82.4820   30.2750 C   0  0  0  0  0  0  0  0  0  0  0  0
   61.5090   82.5270   31.5690 C   0  0  0  0  0  0  0  0  0  0  0  0
   60.9170   81.7710   32.5790 C   0  0  0  0  0  0  0  0  0  0  0  0
   59.8120   80.9650   32.2920 C   0  0  0  0  0  0  0  0  0  0  0  0
   55.9700   78.9480   28.1230 N   0  0  0  0  0  0  0  0  0  0  0  0
   54.3360   79.9750   25.7970 S   0  0  0  0  0  0  0  0  0  0  0  0
   51.8870   81.9930   22.2590 C   0  0  0  0  0  0  0  0  0  0  0  0
   53.1510   81.9930   21.5910 O   0  0  0  0  0  0  0  0  0  0  0  0
   50.8060   81.5880   21.2570 C   0  0  0  0  0  0  0  0  0  0  0  0
   49.5590   81.3570   21.9200 O   0  0  0  0  0  0  0  0  0  0  0  0
   53.8490   80.5240   22.9260 H   0  0  0  0  0  0  0  0  0  0  0  0
   53.1360   76.6084   26.1378 H   0  0  0  0  0  0  0  0  0  0  0  0
   53.5729   76.5823   28.5267 H   0  0  0  0  0  0  0  0  0  0  0  0
   54.8685   76.2914   30.6176 H   0  0  0  0  0  0  0  0  0  0  0  0
   58.4336   79.8145   28.6860 H   0  0  0  0  0  0  0  0  0  0  0  0
   57.4596   79.8217   31.5942 H   0  0  0  0  0  0  0  0  0  0  0  0
   59.4825   81.6514   28.9672 H   0  0  0  0  0  0  0  0  0  0  0  0
   61.4560   83.0822   29.4779 H   0  0  0  0  0  0  0  0  0  0  0  0
   62.3818   83.1580   31.7926 H   0  0  0  0  0  0  0  0  0  0  0  0
   61.3194   81.8087   33.6020 H   0  0  0  0  0  0  0  0  0  0  0  0
   59.3440   80.3770   33.0953 H   0  0  0  0  0  0  0  0  0  0  0  0
   51.6563   82.9989   22.6398 H   0  0  0  0  0  0  0  0  0  0  0  0
   53.6340   82.7720   21.9420 H   0  0  0  0  0  0  0  0  0  0  0  0
   50.6782   82.3937   20.5191 H   0  0  0  0  0  0  0  0  0  0  0  0
   51.1178   80.6582   20.7588 H   0  0  0  0  0  0  0  0  0  0  0  0
   48.9600   82.0710   21.6280 H   0  0  0  0  0  0  0  0  0  0  0  0
  1  2  2  0
  2  3  1  0
  3  4  1  0
  4  5  2  0
  5  6  1  0
  6  7  2  0
  7  8  1  0
  8  9  1  0
  9 10  2  0
 10 11  1  0
 11 12  2  0
 12 13  1  0
 13 14  2  0
 14 15  1  0
 15 16  2  0
 16 17  1  0
 17 18  2  0
 18 19  1  0
 19 20  2  0
 12 21  1  0
  7 22  1  0
  2 23  1  0
 23 24  1  0
 23 25  1  0
 25 26  1  0
 22  4  1  0
 21  8  2  0
 20 15  1  0
  3 27  1  0
  6 28  1  0
  9 29  1  0
 10 30  1  0
 13 31  1  0
 14 32  1  0
 16 33  1  0
 17 34  1  0
 18 35  1  0
 19 36  1  0
 20 37  1  0
 23 38  1  0
 24 39  1  0
 25 40  1  0
 25 41  1  0
 26 42  1  0
M  END
>  <meeko>  (1) 
{"is_sidechain": false}

>  <smiles>  (1) 
O=C(Nc1ncc(-c2ccnc(/C=C/c3ccccc3)n2)s1)C(O)CO

>  <vina_score>  (1) 
-7.813

>  <job_id>  (1) 
700204040b0d4f11

$$$$
