
     RDKit          3D

 38 39  0  0  0  0  0  0  0  0999 V2000
   52.1880   75.4410   26.6900 C   0  0  0  0  0  0  0  0  0  0  0  0
   52.4050   75.8970   28.0200 O   0  0  0  0  0  0  0  0  0  0  0  0
   53.4700   76.7310   28.2190 C   0  0  0  0  0  0  0  0  0  0  0  0
   53.6590   77.9780   27.6270 C   0  0  0  0  0  0  0  0  0  0  0  0
   54.8030   78.7320   27.9240 C   0  0  0  0  0  0  0  0  0  0  0  0
   55.7800   78.2590   28.8140 C   0  0  0  0  0  0  0  0  0  0  0  0
   56.9800   79.0540   29.1190 C   0  0  0  0  0  0  0  0  0  0  0  0
   57.4350   79.2040   30.4370 C   0  0  0  0  0  0  0  0  0  0  0  0
   58.5750   79.9640   30.7330 C   0  0  0  0  0  0  0  0  0  0  0  0
   59.2840   80.6000   29.7150 C   0  0  0  0  0  0  0  0  0  0  0  0
   60.4460   81.3680   29.9310 N   0  0  0  0  0  0  0  0  0  0  0  0
   60.5190   82.6510   30.4250 C   0  0  0  0  0  0  0  0  0  0  0  0
   59.5540   83.3920   30.5930 O   0  0  0  0  0  0  0  0  0  0  0  0
   61.8240   83.0770   30.6980 N   0  0  0  0  0  0  0  0  0  0  0  0
   62.8870   82.1760   31.1240 C   0  0  0  0  0  0  0  0  0  0  0  0
   61.9840   84.4610   31.1120 C   0  0  0  0  0  0  0  0  0  0  0  0
   58.8460   80.4500   28.3950 C   0  0  0  0  0  0  0  0  0  0  0  0
   57.7080   79.6900   28.1020 C   0  0  0  0  0  0  0  0  0  0  0  0
   55.5740   77.0020   29.4010 C   0  0  0  0  0  0  0  0  0  0  0  0
   54.4320   76.2490   29.1060 C   0  0  0  0  0  0  0  0  0  0  0  0
   51.7155   74.4480   26.7154 H   0  0  0  0  0  0  0  0  0  0  0  0
   51.5294   76.1471   26.1631 H   0  0  0  0  0  0  0  0  0  0  0  0
   53.1514   75.3753   26.1631 H   0  0  0  0  0  0  0  0  0  0  0  0
   52.9091   78.3717   26.9251 H   0  0  0  0  0  0  0  0  0  0  0  0
   54.9379   79.7152   27.4495 H   0  0  0  0  0  0  0  0  0  0  0  0
   56.8860   78.7152   31.2553 H   0  0  0  0  0  0  0  0  0  0  0  0
   58.9125   80.0592   31.7756 H   0  0  0  0  0  0  0  0  0  0  0  0
   61.2780   81.0520   29.4610 H   0  0  0  0  0  0  0  0  0  0  0  0
   62.9232   82.1453   32.2230 H   0  0  0  0  0  0  0  0  0  0  0  0
   62.6894   81.1661   30.7353 H   0  0  0  0  0  0  0  0  0  0  0  0
   63.8509   82.5364   30.7353 H   0  0  0  0  0  0  0  0  0  0  0  0
   61.9904   84.5167   32.2106 H   0  0  0  0  0  0  0  0  0  0  0  0
   62.9335   84.8537   30.7194 H   0  0  0  0  0  0  0  0  0  0  0  0
   61.1491   85.0600   30.7194 H   0  0  0  0  0  0  0  0  0  0  0  0
   59.4019   80.9345   27.5787 H   0  0  0  0  0  0  0  0  0  0  0  0
   57.3788   79.5896   27.0572 H   0  0  0  0  0  0  0  0  0  0  0  0
   56.3206   76.6024   30.1031 H   0  0  0  0  0  0  0  0  0  0  0  0
   54.2916   75.2659   29.5791 H   0  0  0  0  0  0  0  0  0  0  0  0
  1  2  1  0
  2  3  1  0
  3  4  1  0
  4  5  2  0
  5  6  1  0
  6  7  1  0
  7  8  1  0
  8  9  2  0
  9 10  1  0
 10 11  1  0
 11 12  1  0
 12 13  2  0
 12 14  1  0
 14 15  1  0
 14 16  1  0
 10 17  2  0
 17 18  1  0
  6 19  2  0
 19 20  1  0
 20  3  2  0
 18  7  2  0
  1 21  1  0
  1 22  1  0
  1 23  1  0
  4 24  1  0
  5 25  1  0
  8 26  1  0
  9 27  1  0
 11 28  1  0
 15 29  1  0
 15 30  1  0
 15 31  1  0
 16 32  1  0
 16 33  1  0
 16 34  1  0
 17 35  1  0
 18 36  1  0
 19 37  1  0
 20 38  1  0
M  END
>  <meeko>  (1) 
{"is_sidechain": false}

>  <smiles>  (1) 
COc1ccc(-c2ccc(NC(=O)N(C)C)cc2)cc1

>  <vina_score>  (1) 
-8.200

>  <job_id>  (1) 
70df8835fd94d4ca

$$$$
