
     RDKit          3D

 49 51  0  0  0  0  0  0  0  0999 V2000
   60.9120   84.2910   34.2770 C   0  0  0  0  0  0  0  0  0  0  0  0
   60.7560   84.4850   32.7790 C   0  0  0  0  0  0  0  0  0  0  0  0
   59.9360   83.4520   32.1780 N   0  0  0  0  0  0  0  0  0  0  0  0
   60.3080   82.8530   31.0020 C   0  0  0  0  0  0  0  0  0  0  0  0
   61.3510   83.1370   30.4180 O   0  0  0  0  0  0  0  0  0  0  0  0
   59.4190   81.9030   30.5220 N   0  0  0  0  0  0  0  0  0  0  0  0
   58.2960   81.3460   31.2750 C   0  0  0  0  0  0  0  0  0  0  0  0
   58.0760   79.8550   31.0200 C   0  0  0  0  0  0  0  0  0  0  0  0
   58.1040   79.4630   29.5320 C   0  0  0  0  0  0  0  0  0  0  0  0
   56.8630   78.7440   29.0830 C   0  0  0  0  0  0  0  0  0  0  0  0
   56.3290   77.5580   29.5590 C   0  0  0  0  0  0  0  0  0  0  0  0
   55.1720   77.2290   28.9110 N   0  0  0  0  0  0  0  0  0  0  0  0
   54.9960   78.1760   28.0220 C   0  0  0  0  0  0  0  0  0  0  0  0
   53.9350   78.3640   27.0620 C   0  0  0  0  0  0  0  0  0  0  0  0
   52.9040   77.4700   26.8740 N   0  0  0  0  0  0  0  0  0  0  0  0
   52.6470   76.2280   27.3700 C   0  0  0  0  0  0  0  0  0  0  0  0
   53.3000   75.4660   28.0510 O   0  0  0  0  0  0  0  0  0  0  0  0
   51.4360   75.8310   26.9310 O   0  0  0  0  0  0  0  0  0  0  0  0
   53.8820   79.4240   26.3060 N   0  0  0  0  0  0  0  0  0  0  0  0
   54.8930   80.3730   26.4090 C   0  0  0  0  0  0  0  0  0  0  0  0
   54.8750   81.8080   25.3950 S   0  0  0  0  0  0  0  0  0  0  0  0
   52.8780   81.8110   24.8970 S   0  0  0  0  0  0  0  0  0  0  0  0
   52.9350   81.3570   23.1450 C   0  0  0  0  0  0  0  0  0  0  0  0
   55.9250   80.2400   27.2670 C   0  0  0  0  0  0  0  0  0  0  0  0
   55.9800   79.1360   28.0950 N   0  0  0  0  0  0  0  0  0  0  0  0
   58.4900   80.6210   28.6100 C   0  0  0  0  0  0  0  0  0  0  0  0
   59.6850   81.3650   29.1910 C   0  0  0  0  0  0  0  0  0  0  0  0
   60.3086   85.0414   34.8087 H   0  0  0  0  0  0  0  0  0  0  0  0
   60.5703   83.2827   34.5537 H   0  0  0  0  0  0  0  0  0  0  0  0
   61.9701   84.4083   34.5537 H   0  0  0  0  0  0  0  0  0  0  0  0
   60.2864   85.4625   32.5949 H   0  0  0  0  0  0  0  0  0  0  0  0
   61.7562   84.4308   32.3244 H   0  0  0  0  0  0  0  0  0  0  0  0
   58.9440   83.5310   32.3300 H   0  0  0  0  0  0  0  0  0  0  0  0
   58.4888   81.4918   32.3481 H   0  0  0  0  0  0  0  0  0  0  0  0
   57.3885   81.8705   30.9414 H   0  0  0  0  0  0  0  0  0  0  0  0
   58.8670   79.2948   31.5401 H   0  0  0  0  0  0  0  0  0  0  0  0
   57.0699   79.6136   31.3936 H   0  0  0  0  0  0  0  0  0  0  0  0
   58.9183   78.7290   29.4420 H   0  0  0  0  0  0  0  0  0  0  0  0
   56.7809   76.9550   30.3604 H   0  0  0  0  0  0  0  0  0  0  0  0
   52.2020   77.7910   26.2270 H   0  0  0  0  0  0  0  0  0  0  0  0
   50.8380   76.4720   27.3740 H   0  0  0  0  0  0  0  0  0  0  0  0
   53.0716   80.2695   23.0523 H   0  0  0  0  0  0  0  0  0  0  0  0
   51.9929   81.6510   22.6592 H   0  0  0  0  0  0  0  0  0  0  0  0
   53.7752   81.8748   22.6592 H   0  0  0  0  0  0  0  0  0  0  0  0
   56.7156   81.0038   27.3070 H   0  0  0  0  0  0  0  0  0  0  0  0
   58.7528   80.2260   27.6176 H   0  0  0  0  0  0  0  0  0  0  0  0
   57.6397   81.3129   28.5195 H   0  0  0  0  0  0  0  0  0  0  0  0
   60.5352   80.6700   29.2555 H   0  0  0  0  0  0  0  0  0  0  0  0
   59.9040   82.2138   28.5264 H   0  0  0  0  0  0  0  0  0  0  0  0
  1  2  1  0
  2  3  1  0
  3  4  1  0
  4  5  2  0
  4  6  1  0
  6  7  1  0
  7  8  1  0
  8  9  1  0
  9 10  1  0
 10 11  2  0
 11 12  1  0
 12 13  2  0
 13 14  1  0
 14 15  1  0
 15 16  1  0
 16 17  2  0
 16 18  1  0
 14 19  2  0
 19 20  1  0
 20 21  1  0
 21 22  1  0
 22 23  1  0
 20 24  2  0
 24 25  1  0
  9 26  1  0
 26 27  1  0
 27  6  1  0
 25 10  1  0
 25 13  1  0
  1 28  1  0
  1 29  1  0
  1 30  1  0
  2 31  1  0
  2 32  1  0
  3 33  1  0
  7 34  1  0
  7 35  1  0
  8 36  1  0
  8 37  1  0
  9 38  1  0
 11 39  1  0
 15 40  1  0
 18 41  1  0
 23 42  1  0
 23 43  1  0
 23 44  1  0
 24 45  1  0
 26 46  1  0
 26 47  1  0
 27 48  1  0
 27 49  1  0
M  END
>  <meeko>  (1) 
{"is_sidechain": false}

>  <smiles>  (1) 
CCNC(=O)N1CCC(c2cnc3c(NC(=O)O)nc(SSC)cn23)CC1

>  <vina_score>  (1) 
-7.496

>  <job_id>  (1) 
71042746bc70602c

$$$$
