
     RDKit          3D

 49 51  0  0  0  0  0  0  0  0999 V2000
   52.9290   74.9820   27.2880 C   0  0  0  0  0  0  0  0  0  0  0  0
   52.4160   76.4170   27.3400 C   0  0  0  0  0  0  0  0  0  0  0  0
   53.3300   77.3260   28.0470 N   0  0  0  0  0  0  0  0  0  0  0  0
   54.3620   76.5420   28.7700 C   0  0  0  0  0  0  0  0  0  0  0  0
   55.3800   77.4340   29.5180 C   0  0  0  0  0  0  0  0  0  0  0  0
   56.0380   78.3640   28.5780 N   0  0  0  0  0  0  0  0  0  0  0  0
   57.1320   79.1070   29.0490 C   0  0  0  0  0  0  0  0  0  0  0  0
   57.4120   79.1270   30.4240 C   0  0  0  0  0  0  0  0  0  0  0  0
   58.4830   79.8620   30.9480 C   0  0  0  0  0  0  0  0  0  0  0  0
   59.3100   80.6100   30.1100 C   0  0  0  0  0  0  0  0  0  0  0  0
   60.3670   81.3220   30.7140 N   0  0  0  0  0  0  0  0  0  0  0  0
   60.4380   82.6810   30.9640 C   0  0  0  0  0  0  0  0  0  0  0  0
   59.5820   83.5150   30.6870 O   0  0  0  0  0  0  0  0  0  0  0  0
   61.7350   83.1230   31.6420 C   0  0  0  0  0  0  0  0  0  0  0  0
   61.7820   82.7870   33.1400 C   0  0  0  0  0  0  0  0  0  0  0  0
   62.9010   81.7650   33.2980 C   0  0  0  0  0  0  0  0  0  0  0  0
   63.8810   82.1380   32.2010 C   0  0  0  0  0  0  0  0  0  0  0  0
   62.9840   82.4820   31.0200 C   0  0  0  0  0  0  0  0  0  0  0  0
   59.0410   80.6130   28.7460 C   0  0  0  0  0  0  0  0  0  0  0  0
   57.9640   79.8770   28.2260 C   0  0  0  0  0  0  0  0  0  0  0  0
   55.0490   79.1730   27.8260 C   0  0  0  0  0  0  0  0  0  0  0  0
   54.0150   78.2610   27.1220 C   0  0  0  0  0  0  0  0  0  0  0  0
   53.0643   74.6036   28.3120 H   0  0  0  0  0  0  0  0  0  0  0  0
   52.2007   74.3512   26.7573 H   0  0  0  0  0  0  0  0  0  0  0  0
   53.8921   74.9559   26.7573 H   0  0  0  0  0  0  0  0  0  0  0  0
   52.2862   76.7809   26.3101 H   0  0  0  0  0  0  0  0  0  0  0  0
   51.4656   76.4080   27.8938 H   0  0  0  0  0  0  0  0  0  0  0  0
   53.8603   75.8920   29.5020 H   0  0  0  0  0  0  0  0  0  0  0  0
   54.9198   75.9604   28.0213 H   0  0  0  0  0  0  0  0  0  0  0  0
   54.8548   78.0125   30.2922 H   0  0  0  0  0  0  0  0  0  0  0  0
   56.1451   76.7924   29.9794 H   0  0  0  0  0  0  0  0  0  0  0  0
   56.7731   78.5499   31.1087 H   0  0  0  0  0  0  0  0  0  0  0  0
   58.6739   79.8492   32.0312 H   0  0  0  0  0  0  0  0  0  0  0  0
   61.1640   80.7640   30.9910 H   0  0  0  0  0  0  0  0  0  0  0  0
   61.7401   84.2128   31.4927 H   0  0  0  0  0  0  0  0  0  0  0  0
   62.0011   83.6899   33.7289 H   0  0  0  0  0  0  0  0  0  0  0  0
   60.8192   82.3938   33.4985 H   0  0  0  0  0  0  0  0  0  0  0  0
   63.3709   81.8469   34.2892 H   0  0  0  0  0  0  0  0  0  0  0  0
   62.5463   80.7267   33.2199 H   0  0  0  0  0  0  0  0  0  0  0  0
   64.4902   83.0048   32.4969 H   0  0  0  0  0  0  0  0  0  0  0  0
   64.5952   81.3326   31.9744 H   0  0  0  0  0  0  0  0  0  0  0  0
   63.4873   83.1909   30.3460 H   0  0  0  0  0  0  0  0  0  0  0  0
   62.7366   81.5955   30.4175 H   0  0  0  0  0  0  0  0  0  0  0  0
   59.6786   81.1981   28.0669 H   0  0  0  0  0  0  0  0  0  0  0  0
   57.7685   79.9059   27.1439 H   0  0  0  0  0  0  0  0  0  0  0  0
   54.5241   79.8414   28.5243 H   0  0  0  0  0  0  0  0  0  0  0  0
   55.5806   79.7591   27.0618 H   0  0  0  0  0  0  0  0  0  0  0  0
   53.2560   78.8980   26.6444 H   0  0  0  0  0  0  0  0  0  0  0  0
   54.5646   77.6505   26.3904 H   0  0  0  0  0  0  0  0  0  0  0  0
  1  2  1  0
  2  3  1  0
  3  4  1  0
  4  5  1  0
  5  6  1  0
  6  7  1  0
  7  8  1  0
  8  9  2  0
  9 10  1  0
 10 11  1  0
 11 12  1  0
 12 13  2  0
 12 14  1  0
 14 15  1  0
 15 16  1  0
 16 17  1  0
 17 18  1  0
 10 19  2  0
 19 20  1  0
  6 21  1  0
 21 22  1  0
 22  3  1  0
 20  7  2  0
 18 14  1  0
  1 23  1  0
  1 24  1  0
  1 25  1  0
  2 26  1  0
  2 27  1  0
  4 28  1  0
  4 29  1  0
  5 30  1  0
  5 31  1  0
  8 32  1  0
  9 33  1  0
 11 34  1  0
 14 35  1  0
 15 36  1  0
 15 37  1  0
 16 38  1  0
 16 39  1  0
 17 40  1  0
 17 41  1  0
 18 42  1  0
 18 43  1  0
 19 44  1  0
 20 45  1  0
 21 46  1  0
 21 47  1  0
 22 48  1  0
 22 49  1  0
M  END
>  <meeko>  (1) 
{"is_sidechain": false}

>  <smiles>  (1) 
CCN1CCN(c2ccc(NC(=O)C3CCCC3)cc2)CC1

>  <vina_score>  (1) 
-7.269

>  <job_id>  (1) 
715c437cbf9a96ec

$$$$
