
     RDKit          3D

 40 41  0  0  0  0  0  0  0  0999 V2000
   53.7110   77.2380   27.1950 C   0  0  0  0  0  0  0  0  0  0  0  0
   54.2760   77.6070   28.5680 C   0  0  0  0  0  0  0  0  0  0  0  0
   54.4310   76.3540   29.4410 C   0  0  0  0  0  0  0  0  0  0  0  0
   55.5750   78.3940   28.4220 C   0  0  0  0  0  0  0  0  0  0  0  0
   56.7490   77.9280   29.0520 C   0  0  0  0  0  0  0  0  0  0  0  0
   57.9530   78.6310   28.9630 C   0  0  0  0  0  0  0  0  0  0  0  0
   58.0140   79.8150   28.2370 C   0  0  0  0  0  0  0  0  0  0  0  0
   56.8730   80.2800   27.5910 C   0  0  0  0  0  0  0  0  0  0  0  0
   56.9650   81.4240   26.8960 F   0  0  0  0  0  0  0  0  0  0  0  0
   55.6590   79.5860   27.6660 C   0  0  0  0  0  0  0  0  0  0  0  0
   54.5040   80.1160   26.8950 C   0  0  0  0  0  0  0  0  0  0  0  0
   53.5640   80.6010   27.5120 O   0  0  0  0  0  0  0  0  0  0  0  0
   54.6300   80.0140   25.5210 N   0  0  0  0  0  0  0  0  0  0  0  0
   53.7070   80.4330   24.5410 C   0  0  0  0  0  0  0  0  0  0  0  0
   53.1000   79.4320   23.7680 C   0  0  0  0  0  0  0  0  0  0  0  0
   52.1760   79.7600   22.7710 C   0  0  0  0  0  0  0  0  0  0  0  0
   51.8600   81.0990   22.5420 C   0  0  0  0  0  0  0  0  0  0  0  0
   50.6860   81.5210   21.2840 S   0  0  0  0  0  0  0  0  0  0  0  0
   49.2350   81.0860   22.0200 N   0  0  0  0  0  0  0  0  0  0  0  0
   50.8520   80.6070   20.1750 O   0  0  0  0  0  0  0  0  0  0  0  0
   50.6850   82.9540   21.1170 O   0  0  0  0  0  0  0  0  0  0  0  0
   52.4420   82.1060   23.3130 C   0  0  0  0  0  0  0  0  0  0  0  0
   53.3690   81.7690   24.3060 C   0  0  0  0  0  0  0  0  0  0  0  0
   52.7963   76.6406   27.3234 H   0  0  0  0  0  0  0  0  0  0  0  0
   53.4741   78.1560   26.6372 H   0  0  0  0  0  0  0  0  0  0  0  0
   54.4563   76.6521   26.6372 H   0  0  0  0  0  0  0  0  0  0  0  0
   53.5649   78.2677   29.0856 H   0  0  0  0  0  0  0  0  0  0  0  0
   54.3956   76.6401   30.5026 H   0  0  0  0  0  0  0  0  0  0  0  0
   53.6129   75.6517   29.2230 H   0  0  0  0  0  0  0  0  0  0  0  0
   55.3956   75.8723   29.2230 H   0  0  0  0  0  0  0  0  0  0  0  0
   56.7152   76.9902   29.6260 H   0  0  0  0  0  0  0  0  0  0  0  0
   58.8524   78.2478   29.4672 H   0  0  0  0  0  0  0  0  0  0  0  0
   58.9562   80.3792   28.1739 H   0  0  0  0  0  0  0  0  0  0  0  0
   55.4630   79.5540   25.1750 H   0  0  0  0  0  0  0  0  0  0  0  0
   53.3538   78.3770   23.9482 H   0  0  0  0  0  0  0  0  0  0  0  0
   51.7022   78.9683   22.1721 H   0  0  0  0  0  0  0  0  0  0  0  0
   49.0130   80.0960   21.9170 H   0  0  0  0  0  0  0  0  0  0  0  0
   48.4900   81.6820   21.6530 H   0  0  0  0  0  0  0  0  0  0  0  0
   52.1737   83.1589   23.1413 H   0  0  0  0  0  0  0  0  0  0  0  0
   53.8361   82.5629   24.9073 H   0  0  0  0  0  0  0  0  0  0  0  0
  1  2  1  0
  2  3  1  0
  2  4  1  0
  4  5  2  0
  5  6  1  0
  6  7  2  0
  7  8  1  0
  8  9  1  0
  8 10  2  0
 10 11  1  0
 11 12  2  0
 11 13  1  0
 13 14  1  0
 14 15  1  0
 15 16  2  0
 16 17  1  0
 17 18  1  0
 18 19  1  0
 18 20  2  0
 18 21  2  0
 17 22  2  0
 22 23  1  0
 10  4  1  0
 23 14  2  0
  1 24  1  0
  1 25  1  0
  1 26  1  0
  2 27  1  0
  3 28  1  0
  3 29  1  0
  3 30  1  0
  5 31  1  0
  6 32  1  0
  7 33  1  0
 13 34  1  0
 15 35  1  0
 16 36  1  0
 19 37  1  0
 19 38  1  0
 22 39  1  0
 23 40  1  0
M  END
>  <meeko>  (1) 
{"is_sidechain": false}

>  <smiles>  (1) 
CC(C)c1cccc(F)c1C(=O)Nc1ccc(S(N)(=O)=O)cc1

>  <vina_score>  (1) 
-7.946

>  <job_id>  (1) 
7217a64ee5e46c8c

$$$$
