
     RDKit          3D

 53 54  0  0  0  0  0  0  0  0999 V2000
   60.7200   86.1470   31.3950 C   0  0  0  0  0  0  0  0  0  0  0  0
   59.6440   85.0950   31.6700 C   0  0  2  0  0  0  0  0  0  0  0  0
   58.4790   85.6200   32.5220 C   0  0  1  0  0  0  0  0  0  0  0  0
   57.8710   86.9540   32.1010 C   0  0  0  0  0  0  0  0  0  0  0  0
   57.4350   84.6320   32.5200 O   0  0  0  0  0  0  0  0  0  0  0  0
   60.3950   83.6120   32.3400 S   0  0  0  0  0  0  0  0  0  0  0  0
   59.9350   83.4300   33.7040 O   0  0  0  0  0  0  0  0  0  0  0  0
   61.8180   83.6570   32.0520 O   0  0  0  0  0  0  0  0  0  0  0  0
   59.7400   82.2760   31.3660 C   0  0  0  0  0  0  0  0  0  0  0  0
   58.9910   81.2810   31.9910 C   0  0  0  0  0  0  0  0  0  0  0  0
   58.4730   80.2320   31.2250 C   0  0  0  0  0  0  0  0  0  0  0  0
   58.6790   80.1640   29.8350 C   0  0  0  0  0  0  0  0  0  0  0  0
   58.1410   79.0780   29.1360 N   0  0  0  0  0  0  0  0  0  0  0  0
   56.8610   78.7400   28.7090 C   0  0  0  0  0  0  0  0  0  0  0  0
   56.1700   77.7290   29.2520 N   0  0  0  0  0  0  0  0  0  0  0  0
   54.9360   77.4840   28.7700 C   0  0  0  0  0  0  0  0  0  0  0  0
   54.3550   78.2110   27.7650 C   0  0  0  0  0  0  0  0  0  0  0  0
   52.9950   77.9220   27.2550 C   0  0  0  0  0  0  0  0  0  0  0  0
   52.3280   77.0070   28.0180 F   0  0  0  0  0  0  0  0  0  0  0  0
   52.1870   79.0190   27.2260 F   0  0  0  0  0  0  0  0  0  0  0  0
   52.9910   77.4090   25.9940 F   0  0  0  0  0  0  0  0  0  0  0  0
   55.1340   79.2240   27.2710 C   0  0  0  0  0  0  0  0  0  0  0  0
   54.5990   79.9940   26.2600 O   0  0  0  0  0  0  0  0  0  0  0  0
   54.4040   81.3880   26.5510 C   0  0  2  0  0  0  0  0  0  0  0  0
   53.0910   81.8590   25.9200 C   0  0  0  0  0  0  0  0  0  0  0  0
   55.6370   82.1560   26.0120 C   0  0  0  0  0  0  0  0  0  0  0  0
   56.3100   81.4080   25.0200 O   0  0  0  0  0  0  0  0  0  0  0  0
   56.5960   82.4830   27.0010 O   0  0  0  0  0  0  0  0  0  0  0  0
   56.3710   79.5030   27.7220 N   0  0  0  0  0  0  0  0  0  0  0  0
   59.4230   81.1880   29.2360 C   0  0  0  0  0  0  0  0  0  0  0  0
   59.9460   82.2460   29.9890 C   0  0  0  0  0  0  0  0  0  0  0  0
   61.1112   86.5295   32.3493 H   0  0  0  0  0  0  0  0  0  0  0  0
   61.5391   85.6918   30.8190 H   0  0  0  0  0  0  0  0  0  0  0  0
   60.2834   86.9762   30.8190 H   0  0  0  0  0  0  0  0  0  0  0  0
   59.1768   84.8355   30.7085 H   0  0  0  0  0  0  0  0  0  0  0  0
   58.9160   85.8044   33.5145 H   0  0  0  0  0  0  0  0  0  0  0  0
   57.6061   87.5352   32.9966 H   0  0  0  0  0  0  0  0  0  0  0  0
   58.6015   87.5169   31.5014 H   0  0  0  0  0  0  0  0  0  0  0  0
   56.9669   86.7720   31.5014 H   0  0  0  0  0  0  0  0  0  0  0  0
   57.8070   83.7800   32.8090 H   0  0  0  0  0  0  0  0  0  0  0  0
   58.8092   81.3203   33.0752 H   0  0  0  0  0  0  0  0  0  0  0  0
   57.8908   79.4414   31.7210 H   0  0  0  0  0  0  0  0  0  0  0  0
   58.7780   78.3360   28.8850 H   0  0  0  0  0  0  0  0  0  0  0  0
   54.3629   76.6536   29.2081 H   0  0  0  0  0  0  0  0  0  0  0  0
   54.3211   81.5750   27.6318 H   0  0  0  0  0  0  0  0  0  0  0  0
   52.3742   82.1161   26.7138 H   0  0  0  0  0  0  0  0  0  0  0  0
   53.2810   82.7450   25.2964 H   0  0  0  0  0  0  0  0  0  0  0  0
   52.6744   81.0542   25.2964 H   0  0  0  0  0  0  0  0  0  0  0  0
   55.2167   83.0887   25.6076 H   0  0  0  0  0  0  0  0  0  0  0  0
   56.8560   80.7760   25.5180 H   0  0  0  0  0  0  0  0  0  0  0  0
   56.4590   81.8820   27.7490 H   0  0  0  0  0  0  0  0  0  0  0  0
   59.6003   81.1605   28.1507 H   0  0  0  0  0  0  0  0  0  0  0  0
   60.5156   83.0479   29.4965 H   0  0  0  0  0  0  0  0  0  0  0  0
  1  2  1  0
  2  3  1  0
  3  4  1  0
  3  5  1  0
  2  6  1  0
  6  7  2  0
  6  8  2  0
  6  9  1  0
  9 10  1  0
 10 11  2  0
 11 12  1  0
 12 13  1  0
 13 14  1  0
 14 15  2  0
 15 16  1  0
 16 17  2  0
 17 18  1  0
 18 19  1  0
 18 20  1  0
 18 21  1  0
 17 22  1  0
 22 23  1  0
 23 24  1  0
 24 25  1  0
 24 26  1  0
 26 27  1  0
 26 28  1  0
 22 29  2  0
 12 30  2  0
 30 31  1  0
 31  9  2  0
 29 14  1  0
  1 32  1  0
  1 33  1  0
  1 34  1  0
  2 35  1  6
  3 36  1  1
  4 37  1  0
  4 38  1  0
  4 39  1  0
  5 40  1  0
 10 41  1  0
 11 42  1  0
 13 43  1  0
 16 44  1  0
 24 45  1  1
 25 46  1  0
 25 47  1  0
 25 48  1  0
 26 49  1  0
 27 50  1  0
 28 51  1  0
 30 52  1  0
 31 53  1  0
M  END
>  <meeko>  (1) 
{"is_sidechain": false}

>  <smiles>  (1) 
C[C@H]([C@@H](C)O)S(=O)(=O)c1ccc(Nc2ncc(C(F)(F)F)c(O[C@H](C)C(O)O)n2)cc1

>  <vina_score>  (1) 
-7.851

>  <job_id>  (1) 
72b55af323cca20d

$$$$
