
     RDKit          3D

 37 39  0  0  0  0  0  0  0  0999 V2000
   53.1750   79.4870   26.5250 Cl  0  0  0  0  0  0  0  0  0  0  0  0
   54.2270   78.6870   27.6270 C   0  0  0  0  0  0  0  0  0  0  0  0
   53.7490   77.6260   28.3900 C   0  0  0  0  0  0  0  0  0  0  0  0
   54.6060   76.9800   29.2770 C   0  0  0  0  0  0  0  0  0  0  0  0
   55.9350   77.4000   29.3940 C   0  0  0  0  0  0  0  0  0  0  0  0
   56.4270   78.4700   28.6380 C   0  0  0  0  0  0  0  0  0  0  0  0
   57.7660   78.8970   28.7010 N   0  0  0  0  0  0  0  0  0  0  0  0
   58.4110   79.8570   29.4980 C   0  0  0  0  0  0  0  0  0  0  0  0
   58.1870   79.8570   30.8770 C   0  0  0  0  0  0  0  0  0  0  0  0
   58.8410   80.7700   31.7150 C   0  0  0  0  0  0  0  0  0  0  0  0
   59.7530   81.7120   31.2160 C   0  0  0  0  0  0  0  0  0  0  0  0
   60.3720   82.6120   32.0980 N   0  0  0  0  0  0  0  0  0  0  0  0
   61.8430   82.7490   32.0330 C   0  0  0  0  0  0  0  0  0  0  0  0
   62.2970   83.9240   32.9150 C   0  0  0  0  0  0  0  0  0  0  0  0
   61.8690   83.7520   34.2760 O   0  0  0  0  0  0  0  0  0  0  0  0
   60.4350   83.6760   34.3320 C   0  0  0  0  0  0  0  0  0  0  0  0
   59.8920   82.5030   33.4980 C   0  0  0  0  0  0  0  0  0  0  0  0
   59.9610   81.7120   29.8320 C   0  0  0  0  0  0  0  0  0  0  0  0
   59.3100   80.7940   28.9910 C   0  0  0  0  0  0  0  0  0  0  0  0
   55.5530   79.1070   27.7460 C   0  0  0  0  0  0  0  0  0  0  0  0
   52.7028   77.3004   28.2932 H   0  0  0  0  0  0  0  0  0  0  0  0
   54.2383   76.1403   29.8851 H   0  0  0  0  0  0  0  0  0  0  0  0
   56.6060   76.8796   30.0933 H   0  0  0  0  0  0  0  0  0  0  0  0
   58.3870   78.4140   28.0610 H   0  0  0  0  0  0  0  0  0  0  0  0
   57.4863   79.1289   31.3117 H   0  0  0  0  0  0  0  0  0  0  0  0
   58.6334   80.7474   32.7950 H   0  0  0  0  0  0  0  0  0  0  0  0
   62.3122   81.8209   32.3914 H   0  0  0  0  0  0  0  0  0  0  0  0
   62.1441   82.9390   30.9922 H   0  0  0  0  0  0  0  0  0  0  0  0
   63.3949   83.9873   32.8901 H   0  0  0  0  0  0  0  0  0  0  0  0
   61.8446   84.8469   32.5231 H   0  0  0  0  0  0  0  0  0  0  0  0
   60.1262   83.5413   35.3791 H   0  0  0  0  0  0  0  0  0  0  0  0
   60.0267   84.6090   33.9162 H   0  0  0  0  0  0  0  0  0  0  0  0
   60.2431   81.5547   33.9309 H   0  0  0  0  0  0  0  0  0  0  0  0
   58.7924   82.5318   33.5065 H   0  0  0  0  0  0  0  0  0  0  0  0
   60.6503   82.4480   29.3924 H   0  0  0  0  0  0  0  0  0  0  0  0
   59.5139   80.8151   27.9103 H   0  0  0  0  0  0  0  0  0  0  0  0
   55.9156   79.9460   27.1339 H   0  0  0  0  0  0  0  0  0  0  0  0
  1  2  1  0
  2  3  1  0
  3  4  2  0
  4  5  1  0
  5  6  2  0
  6  7  1  0
  7  8  1  0
  8  9  1  0
  9 10  2  0
 10 11  1  0
 11 12  1  0
 12 13  1  0
 13 14  1  0
 14 15  1  0
 15 16  1  0
 16 17  1  0
 11 18  2  0
 18 19  1  0
  6 20  1  0
 20  2  2  0
 19  8  2  0
 17 12  1  0
  3 21  1  0
  4 22  1  0
  5 23  1  0
  7 24  1  0
  9 25  1  0
 10 26  1  0
 13 27  1  0
 13 28  1  0
 14 29  1  0
 14 30  1  0
 16 31  1  0
 16 32  1  0
 17 33  1  0
 17 34  1  0
 18 35  1  0
 19 36  1  0
 20 37  1  0
M  END
>  <meeko>  (1) 
{"is_sidechain": false}

>  <smiles>  (1) 
Clc1cccc(Nc2ccc(N3CCOCC3)cc2)c1

>  <vina_score>  (1) 
-7.614

>  <job_id>  (1) 
73666157e529f1d4

$$$$
