
     RDKit          3D

 36 37  0  0  0  0  0  0  0  0999 V2000
   59.2970   80.7230   31.6960 C   0  0  0  0  0  0  0  0  0  0  0  0
   58.1340   80.2320   31.0270 O   0  0  0  0  0  0  0  0  0  0  0  0
   58.3770   79.7560   29.7690 C   0  0  0  0  0  0  0  0  0  0  0  0
   59.3160   80.1010   29.0670 O   0  0  0  0  0  0  0  0  0  0  0  0
   57.3070   78.7450   29.4090 C   0  0  0  0  0  0  0  0  0  0  0  0
   56.3920   79.1850   28.2910 C   0  0  0  0  0  0  0  0  0  0  0  0
   55.1600   78.5550   28.0880 C   0  0  0  0  0  0  0  0  0  0  0  0
   54.3210   78.9550   27.0440 C   0  0  0  0  0  0  0  0  0  0  0  0
   54.6920   79.9890   26.1700 C   0  0  0  0  0  0  0  0  0  0  0  0
   53.8100   80.4050   25.0670 C   0  0  0  0  0  0  0  0  0  0  0  0
   53.2930   79.4620   24.1600 C   0  0  0  0  0  0  0  0  0  0  0  0
   52.4570   79.8520   23.1110 C   0  0  0  0  0  0  0  0  0  0  0  0
   52.1220   81.1990   22.9650 C   0  0  0  0  0  0  0  0  0  0  0  0
   51.0620   81.6890   21.6310 S   0  0  0  0  0  0  0  0  0  0  0  0
   49.5400   81.3570   22.2730 N   0  0  0  0  0  0  0  0  0  0  0  0
   51.1200   83.1260   21.5000 O   0  0  0  0  0  0  0  0  0  0  0  0
   51.2840   80.7960   20.5200 O   0  0  0  0  0  0  0  0  0  0  0  0
   52.6280   82.1580   23.8420 C   0  0  0  0  0  0  0  0  0  0  0  0
   53.4650   81.7580   24.8880 C   0  0  0  0  0  0  0  0  0  0  0  0
   55.9340   80.6100   26.3770 C   0  0  0  0  0  0  0  0  0  0  0  0
   56.7760   80.2120   27.4210 C   0  0  0  0  0  0  0  0  0  0  0  0
   59.1481   80.6601   32.7841 H   0  0  0  0  0  0  0  0  0  0  0  0
   60.1685   80.1160   31.4095 H   0  0  0  0  0  0  0  0  0  0  0  0
   59.4698   81.7709   31.4095 H   0  0  0  0  0  0  0  0  0  0  0  0
   57.8027   77.8121   29.1024 H   0  0  0  0  0  0  0  0  0  0  0  0
   56.6774   78.6188   30.3022 H   0  0  0  0  0  0  0  0  0  0  0  0
   54.8487   77.7379   28.7554 H   0  0  0  0  0  0  0  0  0  0  0  0
   53.3533   78.4508   26.9049 H   0  0  0  0  0  0  0  0  0  0  0  0
   53.5515   78.3994   24.2789 H   0  0  0  0  0  0  0  0  0  0  0  0
   52.0660   79.1037   22.4059 H   0  0  0  0  0  0  0  0  0  0  0  0
   49.5040   81.7050   23.2310 H   0  0  0  0  0  0  0  0  0  0  0  0
   49.2850   80.3710   22.2140 H   0  0  0  0  0  0  0  0  0  0  0  0
   52.3709   83.2196   23.7119 H   0  0  0  0  0  0  0  0  0  0  0  0
   53.8607   82.5134   25.5829 H   0  0  0  0  0  0  0  0  0  0  0  0
   56.2504   81.4231   25.7071 H   0  0  0  0  0  0  0  0  0  0  0  0
   57.7471   80.7099   27.5592 H   0  0  0  0  0  0  0  0  0  0  0  0
  1  2  1  0
  2  3  1  0
  3  4  2  0
  3  5  1  0
  5  6  1  0
  6  7  1  0
  7  8  2  0
  8  9  1  0
  9 10  1  0
 10 11  1  0
 11 12  2  0
 12 13  1  0
 13 14  1  0
 14 15  1  0
 14 16  2  0
 14 17  2  0
 13 18  2  0
 18 19  1  0
  9 20  2  0
 20 21  1  0
 21  6  2  0
 19 10  2  0
  1 22  1  0
  1 23  1  0
  1 24  1  0
  5 25  1  0
  5 26  1  0
  7 27  1  0
  8 28  1  0
 11 29  1  0
 12 30  1  0
 15 31  1  0
 15 32  1  0
 18 33  1  0
 19 34  1  0
 20 35  1  0
 21 36  1  0
M  END
>  <meeko>  (1) 
{"is_sidechain": false}

>  <smiles>  (1) 
COC(=O)Cc1ccc(-c2ccc(S(N)(=O)=O)cc2)cc1

>  <vina_score>  (1) 
-8.010

>  <job_id>  (1) 
736ac495f2e81fa4

$$$$
