
     RDKit          3D

 40 43  0  0  0  0  0  0  0  0999 V2000
   56.6850   80.5790   26.9310 O   0  0  0  0  0  0  0  0  0  0  0  0
   56.3210   79.6640   27.6450 C   0  0  0  0  0  0  0  0  0  0  0  0
   55.0190   78.9920   27.5240 C   0  0  0  0  0  0  0  0  0  0  0  0
   53.9510   79.3130   26.7080 C   0  0  0  0  0  0  0  0  0  0  0  0
   52.8240   78.4920   26.7770 C   0  0  0  0  0  0  0  0  0  0  0  0
   52.7960   77.3830   27.6450 C   0  0  0  0  0  0  0  0  0  0  0  0
   53.8940   77.0740   28.4560 C   0  0  0  0  0  0  0  0  0  0  0  0
   55.0060   77.8930   28.3860 C   0  0  0  0  0  0  0  0  0  0  0  0
   56.3100   77.7950   29.1070 C   0  0  0  0  0  0  0  0  0  0  0  0
   56.9910   79.0060   28.6770 N   0  0  0  0  0  0  0  0  0  0  0  0
   58.3850   79.1070   28.7560 N   0  0  0  0  0  0  0  0  0  0  0  0
   58.8700   80.0480   29.6870 C   0  0  0  0  0  0  0  0  0  0  0  0
   59.6850   81.1210   29.3170 C   0  0  0  0  0  0  0  0  0  0  0  0
   60.1930   82.0110   30.2740 C   0  0  0  0  0  0  0  0  0  0  0  0
   59.9210   81.8470   31.6400 C   0  0  0  0  0  0  0  0  0  0  0  0
   60.4370   82.7600   32.6000 N   0  0  0  0  0  0  0  0  0  0  0  0
   59.7170   83.9440   33.0130 C   0  0  0  0  0  0  0  0  0  0  0  0
   60.4360   84.4030   34.2650 C   0  0  0  0  0  0  0  0  0  0  0  0
   61.8680   83.9780   34.0210 C   0  0  0  0  0  0  0  0  0  0  0  0
   61.7200   82.7370   33.1710 C   0  0  0  0  0  0  0  0  0  0  0  0
   62.6230   81.9280   33.0240 O   0  0  0  0  0  0  0  0  0  0  0  0
   59.1340   80.7500   32.0080 C   0  0  0  0  0  0  0  0  0  0  0  0
   58.6300   79.8580   31.0480 C   0  0  0  0  0  0  0  0  0  0  0  0
   53.9874   80.1799   26.0318 H   0  0  0  0  0  0  0  0  0  0  0  0
   51.9495   78.7133   26.1475 H   0  0  0  0  0  0  0  0  0  0  0  0
   51.8973   76.7501   27.6861 H   0  0  0  0  0  0  0  0  0  0  0  0
   53.8730   76.2047   29.1297 H   0  0  0  0  0  0  0  0  0  0  0  0
   56.1632   77.7857   30.1971 H   0  0  0  0  0  0  0  0  0  0  0  0
   56.8679   76.8729   28.8868 H   0  0  0  0  0  0  0  0  0  0  0  0
   58.8610   78.2090   28.7750 H   0  0  0  0  0  0  0  0  0  0  0  0
   59.9326   81.2702   28.2557 H   0  0  0  0  0  0  0  0  0  0  0  0
   60.8177   82.8552   29.9466 H   0  0  0  0  0  0  0  0  0  0  0  0
   59.7605   84.7183   32.2329 H   0  0  0  0  0  0  0  0  0  0  0  0
   58.6497   83.7457   33.1906 H   0  0  0  0  0  0  0  0  0  0  0  0
   60.3637   85.4943   34.3831 H   0  0  0  0  0  0  0  0  0  0  0  0
   60.0116   83.9760   35.1856 H   0  0  0  0  0  0  0  0  0  0  0  0
   62.4254   84.7597   33.4841 H   0  0  0  0  0  0  0  0  0  0  0  0
   62.4294   83.8000   34.9501 H   0  0  0  0  0  0  0  0  0  0  0  0
   58.9056   80.5831   33.0710 H   0  0  0  0  0  0  0  0  0  0  0  0
   58.0346   78.9929   31.3753 H   0  0  0  0  0  0  0  0  0  0  0  0
  1  2  2  0
  2  3  1  0
  3  4  2  0
  4  5  1  0
  5  6  2  0
  6  7  1  0
  7  8  2  0
  8  9  1  0
  9 10  1  0
 10 11  1  0
 11 12  1  0
 12 13  1  0
 13 14  2  0
 14 15  1  0
 15 16  1  0
 16 17  1  0
 17 18  1  0
 18 19  1  0
 19 20  1  0
 20 21  2  0
 15 22  2  0
 22 23  1  0
 10  2  1  0
 23 12  2  0
  8  3  1  0
 20 16  1  0
  4 24  1  0
  5 25  1  0
  6 26  1  0
  7 27  1  0
  9 28  1  0
  9 29  1  0
 11 30  1  0
 13 31  1  0
 14 32  1  0
 17 33  1  0
 17 34  1  0
 18 35  1  0
 18 36  1  0
 19 37  1  0
 19 38  1  0
 22 39  1  0
 23 40  1  0
M  END
>  <meeko>  (1) 
{"is_sidechain": false}

>  <smiles>  (1) 
O=C1c2ccccc2CN1Nc1ccc(N2CCCC2=O)cc1

>  <vina_score>  (1) 
-8.391

>  <job_id>  (1) 
736b5c5dcc988c89

$$$$
