
     RDKit          3D

 38 40  0  0  0  0  0  0  0  0999 V2000
   59.6010   84.3590   31.5630 O   0  0  0  0  0  0  0  0  0  0  0  0
   60.3440   83.4700   31.1590 C   0  0  0  0  0  0  0  0  0  0  0  0
   59.7360   82.2320   30.6200 C   0  0  0  0  0  0  0  0  0  0  0  0
   59.1540   81.3260   31.5070 C   0  0  0  0  0  0  0  0  0  0  0  0
   58.5600   80.1560   31.0200 C   0  0  0  0  0  0  0  0  0  0  0  0
   58.5320   79.8760   29.6490 C   0  0  0  0  0  0  0  0  0  0  0  0
   57.9230   78.7290   29.1100 N   0  0  0  0  0  0  0  0  0  0  0  0
   56.5880   78.4340   28.7740 C   0  0  0  0  0  0  0  0  0  0  0  0
   55.9350   77.4150   29.4900 C   0  0  0  0  0  0  0  0  0  0  0  0
   54.5950   77.1030   29.2400 C   0  0  0  0  0  0  0  0  0  0  0  0
   53.8960   77.8100   28.2700 C   0  0  0  0  0  0  0  0  0  0  0  0
   52.6140   77.5080   28.0310 F   0  0  0  0  0  0  0  0  0  0  0  0
   54.5080   78.8200   27.5470 C   0  0  0  0  0  0  0  0  0  0  0  0
   55.8420   79.1260   27.8040 C   0  0  0  0  0  0  0  0  0  0  0  0
   56.4130   80.0800   27.0530 F   0  0  0  0  0  0  0  0  0  0  0  0
   59.0920   80.8170   28.7700 C   0  0  0  0  0  0  0  0  0  0  0  0
   59.6880   81.9900   29.2460 C   0  0  0  0  0  0  0  0  0  0  0  0
   61.7230   83.5610   31.2000 N   0  0  0  0  0  0  0  0  0  0  0  0
   62.3620   84.7520   31.7310 C   0  0  0  0  0  0  0  0  0  0  0  0
   63.8490   84.4960   31.5450 C   0  0  0  0  0  0  0  0  0  0  0  0
   63.9490   82.9840   31.7070 C   0  0  0  0  0  0  0  0  0  0  0  0
   62.6860   82.4820   31.0200 C   0  0  0  0  0  0  0  0  0  0  0  0
   59.1619   81.5309   32.5877 H   0  0  0  0  0  0  0  0  0  0  0  0
   58.1076   79.4446   31.7266 H   0  0  0  0  0  0  0  0  0  0  0  0
   58.5610   77.9510   28.9860 H   0  0  0  0  0  0  0  0  0  0  0  0
   56.4870   76.8545   30.2589 H   0  0  0  0  0  0  0  0  0  0  0  0
   54.0977   76.3028   29.8078 H   0  0  0  0  0  0  0  0  0  0  0  0
   53.9475   79.3736   26.7793 H   0  0  0  0  0  0  0  0  0  0  0  0
   59.0616   80.6284   27.6867 H   0  0  0  0  0  0  0  0  0  0  0  0
   60.1165   82.7177   28.5412 H   0  0  0  0  0  0  0  0  0  0  0  0
   62.0475   85.6452   31.1713 H   0  0  0  0  0  0  0  0  0  0  0  0
   62.0961   84.9381   32.7820 H   0  0  0  0  0  0  0  0  0  0  0  0
   64.1843   84.8113   30.5459 H   0  0  0  0  0  0  0  0  0  0  0  0
   64.4807   85.0544   32.2515 H   0  0  0  0  0  0  0  0  0  0  0  0
   64.8503   82.5921   31.2129 H   0  0  0  0  0  0  0  0  0  0  0  0
   64.0279   82.6646   32.7567 H   0  0  0  0  0  0  0  0  0  0  0  0
   62.8706   82.2992   29.9511 H   0  0  0  0  0  0  0  0  0  0  0  0
   62.3312   81.5287   31.4388 H   0  0  0  0  0  0  0  0  0  0  0  0
  1  2  2  0
  2  3  1  0
  3  4  1  0
  4  5  2  0
  5  6  1  0
  6  7  1  0
  7  8  1  0
  8  9  1  0
  9 10  2  0
 10 11  1  0
 11 12  1  0
 11 13  2  0
 13 14  1  0
 14 15  1  0
  6 16  2  0
 16 17  1  0
  2 18  1  0
 18 19  1  0
 19 20  1  0
 20 21  1  0
 21 22  1  0
 17  3  2  0
 22 18  1  0
 14  8  2  0
  4 23  1  0
  5 24  1  0
  7 25  1  0
  9 26  1  0
 10 27  1  0
 13 28  1  0
 16 29  1  0
 17 30  1  0
 19 31  1  0
 19 32  1  0
 20 33  1  0
 20 34  1  0
 21 35  1  0
 21 36  1  0
 22 37  1  0
 22 38  1  0
M  END
>  <meeko>  (1) 
{"is_sidechain": false}

>  <smiles>  (1) 
O=C(c1ccc(Nc2ccc(F)cc2F)cc1)N1CCCC1

>  <vina_score>  (1) 
-8.001

>  <job_id>  (1) 
737f40a74393895e

$$$$
