
     RDKit          3D

 39 40  0  0  0  0  0  0  0  0999 V2000
   58.1900   81.0700   32.2310 C   0  0  0  0  0  0  0  0  0  0  0  0
   58.9730   80.6330   31.0020 C   0  0  0  0  0  0  0  0  0  0  0  0
   58.1650   80.6880   29.7110 C   0  0  0  0  0  0  0  0  0  0  0  0
   57.5400   79.0970   29.1970 S   0  0  0  0  0  0  0  0  0  0  0  0
   56.7660   78.5300   30.2840 O   0  0  0  0  0  0  0  0  0  0  0  0
   58.6130   78.3460   28.5730 O   0  0  0  0  0  0  0  0  0  0  0  0
   56.3930   79.5250   27.9040 C   0  0  0  0  0  0  0  0  0  0  0  0
   56.6710   80.6070   27.0680 C   0  0  0  0  0  0  0  0  0  0  0  0
   55.7760   80.9350   26.0460 C   0  0  0  0  0  0  0  0  0  0  0  0
   54.6050   80.1850   25.8390 C   0  0  0  0  0  0  0  0  0  0  0  0
   53.6670   80.5320   24.7560 C   0  0  0  0  0  0  0  0  0  0  0  0
   53.0970   79.5340   23.9460 C   0  0  0  0  0  0  0  0  0  0  0  0
   52.2040   79.8560   22.9210 C   0  0  0  0  0  0  0  0  0  0  0  0
   51.8790   81.1950   22.6910 C   0  0  0  0  0  0  0  0  0  0  0  0
   50.7380   81.6020   21.3960 S   0  0  0  0  0  0  0  0  0  0  0  0
   49.2790   81.0830   22.0590 N   0  0  0  0  0  0  0  0  0  0  0  0
   50.9880   80.7300   20.2730 O   0  0  0  0  0  0  0  0  0  0  0  0
   50.6830   83.0400   21.2700 O   0  0  0  0  0  0  0  0  0  0  0  0
   52.4200   82.2050   23.4850 C   0  0  0  0  0  0  0  0  0  0  0  0
   53.3120   81.8700   24.5080 C   0  0  0  0  0  0  0  0  0  0  0  0
   54.3570   79.0910   26.6860 C   0  0  0  0  0  0  0  0  0  0  0  0
   55.2460   78.7550   27.7110 C   0  0  0  0  0  0  0  0  0  0  0  0
   58.7329   80.7670   33.1385 H   0  0  0  0  0  0  0  0  0  0  0  0
   58.0732   82.1637   32.2216 H   0  0  0  0  0  0  0  0  0  0  0  0
   57.1978   80.5952   32.2216 H   0  0  0  0  0  0  0  0  0  0  0  0
   59.8465   81.2928   30.8937 H   0  0  0  0  0  0  0  0  0  0  0  0
   59.2584   79.5823   31.1588 H   0  0  0  0  0  0  0  0  0  0  0  0
   57.3117   81.3654   29.8624 H   0  0  0  0  0  0  0  0  0  0  0  0
   58.8418   81.0420   28.9194 H   0  0  0  0  0  0  0  0  0  0  0  0
   57.5878   81.1975   27.2123 H   0  0  0  0  0  0  0  0  0  0  0  0
   55.9912   81.7937   25.3931 H   0  0  0  0  0  0  0  0  0  0  0  0
   53.3590   78.4804   24.1226 H   0  0  0  0  0  0  0  0  0  0  0  0
   51.7610   79.0627   22.3010 H   0  0  0  0  0  0  0  0  0  0  0  0
   48.8210   81.8780   22.5100 H   0  0  0  0  0  0  0  0  0  0  0  0
   48.6690   80.6240   21.3840 H   0  0  0  0  0  0  0  0  0  0  0  0
   52.1475   83.2560   23.3082 H   0  0  0  0  0  0  0  0  0  0  0  0
   53.7441   82.6675   25.1303 H   0  0  0  0  0  0  0  0  0  0  0  0
   53.4480   78.4891   26.5398 H   0  0  0  0  0  0  0  0  0  0  0  0
   55.0428   77.8905   28.3601 H   0  0  0  0  0  0  0  0  0  0  0  0
  1  2  1  0
  2  3  1  0
  3  4  1  0
  4  5  2  0
  4  6  2  0
  4  7  1  0
  7  8  1  0
  8  9  2  0
  9 10  1  0
 10 11  1  0
 11 12  1  0
 12 13  2  0
 13 14  1  0
 14 15  1  0
 15 16  1  0
 15 17  2  0
 15 18  2  0
 14 19  2  0
 19 20  1  0
 10 21  2  0
 21 22  1  0
 22  7  2  0
 20 11  2  0
  1 23  1  0
  1 24  1  0
  1 25  1  0
  2 26  1  0
  2 27  1  0
  3 28  1  0
  3 29  1  0
  8 30  1  0
  9 31  1  0
 12 32  1  0
 13 33  1  0
 16 34  1  0
 16 35  1  0
 19 36  1  0
 20 37  1  0
 21 38  1  0
 22 39  1  0
M  END
>  <meeko>  (1) 
{"is_sidechain": false}

>  <smiles>  (1) 
CCCS(=O)(=O)c1ccc(-c2ccc(S(N)(=O)=O)cc2)cc1

>  <vina_score>  (1) 
-7.486

>  <job_id>  (1) 
73d2b6b7e28f3e69

$$$$
