
     RDKit          3D

 41 43  0  0  0  0  0  0  0  0999 V2000
   52.7910   77.6190   27.3130 O   0  0  0  0  0  0  0  0  0  0  0  0
   53.5500   78.5340   27.0030 C   0  0  0  0  0  0  0  0  0  0  0  0
   53.1650   79.3780   25.8540 C   0  0  0  0  0  0  0  0  0  0  0  0
   52.5610   80.6170   26.0980 C   0  0  0  0  0  0  0  0  0  0  0  0
   52.1630   81.4110   25.0210 C   0  0  0  0  0  0  0  0  0  0  0  0
   52.3570   80.9540   23.7210 C   0  0  0  0  0  0  0  0  0  0  0  0
   51.9730   81.7180   22.6910 F   0  0  0  0  0  0  0  0  0  0  0  0
   52.9350   79.7110   23.4720 C   0  0  0  0  0  0  0  0  0  0  0  0
   53.3350   78.9120   24.5440 C   0  0  0  0  0  0  0  0  0  0  0  0
   54.7470   78.7920   27.6670 N   0  0  0  0  0  0  0  0  0  0  0  0
   55.1100   77.8880   28.7510 C   0  0  0  0  0  0  0  0  0  0  0  0
   56.3920   78.2960   29.4690 C   0  0  0  0  0  0  0  0  0  0  0  0
   57.4920   78.6560   28.4620 C   0  0  0  0  0  0  0  0  0  0  0  0
   58.6570   79.1630   29.1990 N   0  0  0  0  0  0  0  0  0  0  0  0
   58.5720   80.2840   30.0290 C   0  0  0  0  0  0  0  0  0  0  0  0
   58.2740   80.2320   31.3950 C   0  0  0  0  0  0  0  0  0  0  0  0
   58.2730   81.3900   32.1840 C   0  0  0  0  0  0  0  0  0  0  0  0
   58.5990   82.6200   31.6230 C   0  0  0  0  0  0  0  0  0  0  0  0
   58.9370   82.6900   30.2770 C   0  0  0  0  0  0  0  0  0  0  0  0
   58.9350   81.5310   29.4950 C   0  0  0  0  0  0  0  0  0  0  0  0
   57.0130   79.7060   27.4400 C   0  0  0  0  0  0  0  0  0  0  0  0
   55.5270   80.0240   27.5600 C   0  0  0  0  0  0  0  0  0  0  0  0
   52.4013   80.9622   27.1301 H   0  0  0  0  0  0  0  0  0  0  0  0
   51.6987   82.3922   25.1989 H   0  0  0  0  0  0  0  0  0  0  0  0
   53.0750   79.3620   22.4383 H   0  0  0  0  0  0  0  0  0  0  0  0
   53.7807   77.9231   24.3615 H   0  0  0  0  0  0  0  0  0  0  0  0
   54.2891   77.8723   29.4830 H   0  0  0  0  0  0  0  0  0  0  0  0
   55.2854   76.8975   28.3060 H   0  0  0  0  0  0  0  0  0  0  0  0
   56.1862   79.1694   30.1053 H   0  0  0  0  0  0  0  0  0  0  0  0
   56.7378   77.4490   30.0797 H   0  0  0  0  0  0  0  0  0  0  0  0
   57.7600   77.7515   27.8962 H   0  0  0  0  0  0  0  0  0  0  0  0
   59.5140   79.1820   28.6500 H   0  0  0  0  0  0  0  0  0  0  0  0
   58.0359   79.2633   31.8586 H   0  0  0  0  0  0  0  0  0  0  0  0
   58.0134   81.3259   33.2510 H   0  0  0  0  0  0  0  0  0  0  0  0
   58.5894   83.5306   32.2401 H   0  0  0  0  0  0  0  0  0  0  0  0
   59.2061   83.6570   29.8269 H   0  0  0  0  0  0  0  0  0  0  0  0
   59.2248   81.5976   28.4359 H   0  0  0  0  0  0  0  0  0  0  0  0
   57.5832   80.6334   27.5977 H   0  0  0  0  0  0  0  0  0  0  0  0
   57.1782   79.2860   26.4369 H   0  0  0  0  0  0  0  0  0  0  0  0
   55.3594   80.6377   28.4574 H   0  0  0  0  0  0  0  0  0  0  0  0
   55.2065   80.5712   26.6612 H   0  0  0  0  0  0  0  0  0  0  0  0
  1  2  2  0
  2  3  1  0
  3  4  1  0
  4  5  2  0
  5  6  1  0
  6  7  1  0
  6  8  2  0
  8  9  1  0
  2 10  1  0
 10 11  1  0
 11 12  1  0
 12 13  1  0
 13 14  1  0
 14 15  1  0
 15 16  2  0
 16 17  1  0
 17 18  2  0
 18 19  1  0
 19 20  2  0
 13 21  1  0
 21 22  1  0
  9  3  2  0
 22 10  1  0
 20 15  1  0
  4 23  1  0
  5 24  1  0
  8 25  1  0
  9 26  1  0
 11 27  1  0
 11 28  1  0
 12 29  1  0
 12 30  1  0
 13 31  1  0
 14 32  1  0
 16 33  1  0
 17 34  1  0
 18 35  1  0
 19 36  1  0
 20 37  1  0
 21 38  1  0
 21 39  1  0
 22 40  1  0
 22 41  1  0
M  END
>  <meeko>  (1) 
{"is_sidechain": false}

>  <smiles>  (1) 
O=C(c1ccc(F)cc1)N1CCC(Nc2ccccc2)CC1

>  <vina_score>  (1) 
-8.626

>  <job_id>  (1) 
73fb2297f7fcf126

$$$$
