
     RDKit          3D

 49 51  0  0  0  0  0  0  0  0999 V2000
   62.0540   83.3170   31.6440 C   0  0  0  0  0  0  0  0  0  0  0  0
   61.4120   82.0400   32.2000 C   0  0  0  0  0  0  0  0  0  0  0  0
   61.2550   82.1540   33.7210 C   0  0  0  0  0  0  0  0  0  0  0  0
   60.1830   81.7190   31.4490 N   0  0  0  0  0  0  0  0  0  0  0  0
   59.5240   80.4560   31.8430 C   0  0  0  0  0  0  0  0  0  0  0  0
   58.1930   80.2310   31.0860 C   0  0  0  0  0  0  0  0  0  0  0  0
   58.4120   80.2480   29.6230 N   0  0  0  0  0  0  0  0  0  0  0  0
   57.3370   79.8730   28.8020 C   0  0  0  0  0  0  0  0  0  0  0  0
   56.5250   78.7900   29.1580 C   0  0  0  0  0  0  0  0  0  0  0  0
   55.4400   78.4060   28.3640 C   0  0  0  0  0  0  0  0  0  0  0  0
   55.1630   79.1180   27.2040 C   0  0  0  0  0  0  0  0  0  0  0  0
   53.9970   78.7650   26.2990 C   0  0  0  0  0  0  0  0  0  0  0  0
   52.7590   79.6540   26.5220 C   0  0  0  0  0  0  0  0  0  0  0  0
   52.5150   80.6000   25.3490 C   0  0  0  0  0  0  0  0  0  0  0  0
   52.3400   79.8890   24.0840 N   0  0  0  0  0  0  0  0  0  0  0  0
   53.2150   78.7310   23.9100 C   0  0  0  0  0  0  0  0  0  0  0  0
   54.4330   78.7330   24.8260 C   0  0  0  0  0  0  0  0  0  0  0  0
   55.9090   80.1820   26.8320 N   0  0  0  0  0  0  0  0  0  0  0  0
   56.9540   80.5270   27.6290 C   0  0  0  0  0  0  0  0  0  0  0  0
   59.1000   81.4860   29.1820 C   0  0  0  0  0  0  0  0  0  0  0  0
   60.4050   81.7070   29.9860 C   0  0  0  0  0  0  0  0  0  0  0  0
   62.3764   83.9582   32.4776 H   0  0  0  0  0  0  0  0  0  0  0  0
   62.9255   83.0509   31.0278 H   0  0  0  0  0  0  0  0  0  0  0  0
   61.3206   83.8578   31.0278 H   0  0  0  0  0  0  0  0  0  0  0  0
   62.0653   81.1682   32.0477 H   0  0  0  0  0  0  0  0  0  0  0  0
   62.0499   81.5768   34.2159 H   0  0  0  0  0  0  0  0  0  0  0  0
   61.3289   83.2102   34.0191 H   0  0  0  0  0  0  0  0  0  0  0  0
   60.2735   81.7567   34.0191 H   0  0  0  0  0  0  0  0  0  0  0  0
   60.2026   79.6186   31.6232 H   0  0  0  0  0  0  0  0  0  0  0  0
   59.2960   80.5146   32.9175 H   0  0  0  0  0  0  0  0  0  0  0  0
   57.7730   79.2568   31.3766 H   0  0  0  0  0  0  0  0  0  0  0  0
   57.4968   81.0413   31.3480 H   0  0  0  0  0  0  0  0  0  0  0  0
   56.7444   78.2306   30.0794 H   0  0  0  0  0  0  0  0  0  0  0  0
   54.8132   77.5501   28.6546 H   0  0  0  0  0  0  0  0  0  0  0  0
   53.6776   77.7503   26.5788 H   0  0  0  0  0  0  0  0  0  0  0  0
   51.8767   79.0091   26.6475 H   0  0  0  0  0  0  0  0  0  0  0  0
   52.9367   80.2647   27.4195 H   0  0  0  0  0  0  0  0  0  0  0  0
   51.6073   81.1872   25.5522 H   0  0  0  0  0  0  0  0  0  0  0  0
   53.4003   81.2454   25.2502 H   0  0  0  0  0  0  0  0  0  0  0  0
   52.4550   80.5400   23.3080 H   0  0  0  0  0  0  0  0  0  0  0  0
   52.6304   77.8217   24.1134 H   0  0  0  0  0  0  0  0  0  0  0  0
   53.5925   78.7688   22.8775 H   0  0  0  0  0  0  0  0  0  0  0  0
   55.0252   77.8242   24.6432 H   0  0  0  0  0  0  0  0  0  0  0  0
   55.0369   79.6275   24.6137 H   0  0  0  0  0  0  0  0  0  0  0  0
   57.5512   81.3987   27.3232 H   0  0  0  0  0  0  0  0  0  0  0  0
   59.3452   81.4009   28.1131 H   0  0  0  0  0  0  0  0  0  0  0  0
   58.4306   82.3416   29.3548 H   0  0  0  0  0  0  0  0  0  0  0  0
   61.1082   80.8965   29.7440 H   0  0  0  0  0  0  0  0  0  0  0  0
   60.8046   82.6923   29.7039 H   0  0  0  0  0  0  0  0  0  0  0  0
  1  2  1  0
  2  3  1  0
  2  4  1  0
  4  5  1  0
  5  6  1  0
  6  7  1  0
  7  8  1  0
  8  9  2  0
  9 10  1  0
 10 11  2  0
 11 12  1  0
 12 13  1  0
 13 14  1  0
 14 15  1  0
 15 16  1  0
 16 17  1  0
 11 18  1  0
 18 19  2  0
  7 20  1  0
 20 21  1  0
 21  4  1  0
 19  8  1  0
 17 12  1  0
  1 22  1  0
  1 23  1  0
  1 24  1  0
  2 25  1  0
  3 26  1  0
  3 27  1  0
  3 28  1  0
  5 29  1  0
  5 30  1  0
  6 31  1  0
  6 32  1  0
  9 33  1  0
 10 34  1  0
 12 35  1  0
 13 36  1  0
 13 37  1  0
 14 38  1  0
 14 39  1  0
 15 40  1  0
 16 41  1  0
 16 42  1  0
 17 43  1  0
 17 44  1  0
 19 45  1  0
 20 46  1  0
 20 47  1  0
 21 48  1  0
 21 49  1  0
M  END
>  <meeko>  (1) 
{"is_sidechain": false}

>  <smiles>  (1) 
CC(C)N1CCN(c2ccc(C3CCNCC3)nc2)CC1

>  <vina_score>  (1) 
-6.676

>  <job_id>  (1) 
7467b62a3606bd9d

$$$$
