
     RDKit          3D

 40 42  0  0  0  0  0  0  0  0999 V2000
   55.4950   82.9570   26.3120 C   0  0  0  0  0  0  0  0  0  0  0  0
   55.0420   81.9780   25.3870 O   0  0  0  0  0  0  0  0  0  0  0  0
   54.5330   80.8180   25.9050 C   0  0  0  0  0  0  0  0  0  0  0  0
   53.3310   80.2210   25.5360 C   0  0  0  0  0  0  0  0  0  0  0  0
   52.9290   79.0380   26.1560 C   0  0  0  0  0  0  0  0  0  0  0  0
   53.7340   78.4540   27.1430 C   0  0  0  0  0  0  0  0  0  0  0  0
   53.2700   77.2090   27.7970 C   0  0  0  0  0  0  0  0  0  0  0  0
   52.2140   76.6650   27.4940 O   0  0  0  0  0  0  0  0  0  0  0  0
   54.0850   76.6870   28.7700 N   0  0  0  0  0  0  0  0  0  0  0  0
   55.2770   77.2320   29.1480 C   0  0  0  0  0  0  0  0  0  0  0  0
   55.9350   76.5360   30.1280 O   0  0  0  0  0  0  0  0  0  0  0  0
   55.7640   78.3570   28.5860 C   0  0  0  0  0  0  0  0  0  0  0  0
   57.0910   78.8200   29.0990 C   0  0  0  0  0  0  0  0  0  0  0  0
   57.3090   79.2890   30.2800 N   0  0  0  0  0  0  0  0  0  0  0  0
   58.7110   79.6660   30.5270 C   0  0  0  0  0  0  0  0  0  0  0  0
   58.8530   81.0110   31.2060 C   0  0  0  0  0  0  0  0  0  0  0  0
   58.7710   81.0940   32.6070 C   0  0  0  0  0  0  0  0  0  0  0  0
   58.8770   82.3230   33.2600 C   0  0  0  0  0  0  0  0  0  0  0  0
   59.0560   83.4880   32.5200 C   0  0  0  0  0  0  0  0  0  0  0  0
   59.1270   83.4270   31.1290 C   0  0  0  0  0  0  0  0  0  0  0  0
   59.0230   82.1960   30.4750 C   0  0  0  0  0  0  0  0  0  0  0  0
   59.0820   82.1230   29.1070 O   0  0  0  0  0  0  0  0  0  0  0  0
   57.8100   82.0510   28.4880 F   0  0  0  0  0  0  0  0  0  0  0  0
   54.9590   79.0280   27.5320 C   0  0  0  0  0  0  0  0  0  0  0  0
   55.3320   80.2220   26.8950 C   0  0  0  0  0  0  0  0  0  0  0  0
   55.3284   82.5969   27.3380 H   0  0  0  0  0  0  0  0  0  0  0  0
   56.5687   83.1388   26.1570 H   0  0  0  0  0  0  0  0  0  0  0  0
   54.9385   83.8931   26.1570 H   0  0  0  0  0  0  0  0  0  0  0  0
   52.7014   80.6798   24.7594 H   0  0  0  0  0  0  0  0  0  0  0  0
   51.9790   78.5630   25.8698 H   0  0  0  0  0  0  0  0  0  0  0  0
   53.7280   75.8400   29.1860 H   0  0  0  0  0  0  0  0  0  0  0  0
   55.8770   75.5920   29.9150 H   0  0  0  0  0  0  0  0  0  0  0  0
   57.9491   78.7551   28.4139 H   0  0  0  0  0  0  0  0  0  0  0  0
   59.1719   78.8999   31.1678 H   0  0  0  0  0  0  0  0  0  0  0  0
   59.2086   79.7382   29.5486 H   0  0  0  0  0  0  0  0  0  0  0  0
   58.6212   80.1776   33.1968 H   0  0  0  0  0  0  0  0  0  0  0  0
   58.8192   82.3707   34.3574 H   0  0  0  0  0  0  0  0  0  0  0  0
   59.1415   84.4574   33.0329 H   0  0  0  0  0  0  0  0  0  0  0  0
   59.2651   84.3490   30.5452 H   0  0  0  0  0  0  0  0  0  0  0  0
   56.2782   80.7055   27.1795 H   0  0  0  0  0  0  0  0  0  0  0  0
  1  2  1  0
  2  3  1  0
  3  4  2  0
  4  5  1  0
  5  6  2  0
  6  7  1  0
  7  8  2  0
  7  9  1  0
  9 10  1  0
 10 11  1  0
 10 12  2  0
 12 13  1  0
 13 14  2  3
 14 15  1  0
 15 16  1  0
 16 17  2  0
 17 18  1  0
 18 19  2  0
 19 20  1  0
 20 21  2  0
 21 22  1  0
 22 23  1  0
 12 24  1  0
 24 25  2  0
 25  3  1  0
 24  6  1  0
 21 16  1  0
  1 26  1  0
  1 27  1  0
  1 28  1  0
  4 29  1  0
  5 30  1  0
  9 31  1  0
 11 32  1  0
 13 33  1  0
 15 34  1  0
 15 35  1  0
 17 36  1  0
 18 37  1  0
 19 38  1  0
 20 39  1  0
 25 40  1  0
M  END
>  <meeko>  (1) 
{"is_sidechain": false}

>  <smiles>  (1) 
COc1ccc2c(=O)[nH]c(O)c(C=NCc3ccccc3OF)c2c1

>  <vina_score>  (1) 
-8.339

>  <job_id>  (1) 
748f384823eeffdb

$$$$
