
     RDKit          3D

 60 63  0  0  0  0  0  0  0  0999 V2000
   65.5760   85.6860   27.8150 C   0  0  0  0  0  0  0  0  0  0  0  0
   66.0880   84.7310   28.7230 O   0  0  0  0  0  0  0  0  0  0  0  0
   65.8980   85.0420   30.3110 S   0  0  0  0  0  0  0  0  0  0  0  0
   65.9010   86.4820   30.4810 O   0  0  0  0  0  0  0  0  0  0  0  0
   66.8090   84.1940   31.0530 O   0  0  0  0  0  0  0  0  0  0  0  0
   64.2570   84.4580   30.6560 C   0  0  0  0  0  0  0  0  0  0  0  0
   64.0420   83.0870   30.8070 C   0  0  0  0  0  0  0  0  0  0  0  0
   62.7510   82.6200   31.0670 C   0  0  0  0  0  0  0  0  0  0  0  0
   61.6680   83.5060   31.1840 C   0  0  0  0  0  0  0  0  0  0  0  0
   60.3840   82.9780   31.4050 N   0  0  0  0  0  0  0  0  0  0  0  0
   59.6880   81.9150   30.8070 C   0  0  0  0  0  0  0  0  0  0  0  0
   59.6480   81.8280   29.4120 C   0  0  0  0  0  0  0  0  0  0  0  0
   58.9980   80.7660   28.7660 C   0  0  0  0  0  0  0  0  0  0  0  0
   58.3660   79.7550   29.4920 C   0  0  0  0  0  0  0  0  0  0  0  0
   57.7080   78.6680   28.9110 N   0  0  0  0  0  0  0  0  0  0  0  0
   56.3710   78.3200   28.7420 C   0  0  0  0  0  0  0  0  0  0  0  0
   55.7230   77.5270   29.6080 N   0  0  0  0  0  0  0  0  0  0  0  0
   54.4360   77.2410   29.3480 C   0  0  0  0  0  0  0  0  0  0  0  0
   53.7630   77.7240   28.2570 C   0  0  0  0  0  0  0  0  0  0  0  0
   54.4970   78.5420   27.4330 C   0  0  0  0  0  0  0  0  0  0  0  0
   53.9250   79.1110   26.2240 C   0  0  0  0  0  0  0  0  0  0  0  0
   53.3260   78.4450   25.1710 C   0  0  0  0  0  0  0  0  0  0  0  0
   52.9050   79.3040   24.2020 N   0  0  0  0  0  0  0  0  0  0  0  0
   53.2390   80.5050   24.6220 C   0  0  0  0  0  0  0  0  0  0  0  0
   52.9970   81.7570   23.8570 C   0  0  0  0  0  0  0  0  0  0  0  0
   53.8420   80.4490   25.8720 N   0  0  0  0  0  0  0  0  0  0  0  0
   54.2430   81.6290   26.6390 C   0  0  0  0  0  0  0  0  0  0  0  0
   55.5070   82.3280   26.1300 C   0  0  0  0  0  0  0  0  0  0  0  0
   53.0870   82.6040   26.8560 C   0  0  0  0  0  0  0  0  0  0  0  0
   55.7890   78.8440   27.6520 N   0  0  0  0  0  0  0  0  0  0  0  0
   58.4150   79.8420   30.8890 C   0  0  0  0  0  0  0  0  0  0  0  0
   59.0670   80.9020   31.5360 C   0  0  0  0  0  0  0  0  0  0  0  0
   61.9100   84.8760   31.0200 C   0  0  0  0  0  0  0  0  0  0  0  0
   63.1980   85.3580   30.7610 C   0  0  0  0  0  0  0  0  0  0  0  0
   65.1285   86.5207   28.3744 H   0  0  0  0  0  0  0  0  0  0  0  0
   66.3921   86.0645   27.1820 H   0  0  0  0  0  0  0  0  0  0  0  0
   64.8090   85.2158   27.1820 H   0  0  0  0  0  0  0  0  0  0  0  0
   64.8811   82.3808   30.7221 H   0  0  0  0  0  0  0  0  0  0  0  0
   62.5801   81.5395   31.1820 H   0  0  0  0  0  0  0  0  0  0  0  0
   59.8510   83.4700   32.1130 H   0  0  0  0  0  0  0  0  0  0  0  0
   60.1360   82.6080   28.8091 H   0  0  0  0  0  0  0  0  0  0  0  0
   58.9861   80.7292   27.6667 H   0  0  0  0  0  0  0  0  0  0  0  0
   58.2840   77.9140   28.5680 H   0  0  0  0  0  0  0  0  0  0  0  0
   53.8954   76.5857   30.0468 H   0  0  0  0  0  0  0  0  0  0  0  0
   52.7108   77.4748   28.0553 H   0  0  0  0  0  0  0  0  0  0  0  0
   53.2042   77.3529   25.1219 H   0  0  0  0  0  0  0  0  0  0  0  0
   52.8361   82.5895   24.5577 H   0  0  0  0  0  0  0  0  0  0  0  0
   53.8698   81.9742   23.2237 H   0  0  0  0  0  0  0  0  0  0  0  0
   52.1061   81.6334   23.2237 H   0  0  0  0  0  0  0  0  0  0  0  0
   54.5263   81.2313   27.6247 H   0  0  0  0  0  0  0  0  0  0  0  0
   56.1113   82.6622   26.9863 H   0  0  0  0  0  0  0  0  0  0  0  0
   56.0935   81.6260   25.5191 H   0  0  0  0  0  0  0  0  0  0  0  0
   55.2242   83.1979   25.5191 H   0  0  0  0  0  0  0  0  0  0  0  0
   52.9222   82.7430   27.9347 H   0  0  0  0  0  0  0  0  0  0  0  0
   53.3323   83.5720   26.3948 H   0  0  0  0  0  0  0  0  0  0  0  0
   52.1742   82.1989   26.3948 H   0  0  0  0  0  0  0  0  0  0  0  0
   57.9307   79.0606   31.4930 H   0  0  0  0  0  0  0  0  0  0  0  0
   59.0886   80.9344   32.6353 H   0  0  0  0  0  0  0  0  0  0  0  0
   61.0728   85.5854   31.0962 H   0  0  0  0  0  0  0  0  0  0  0  0
   63.3730   86.4374   30.6414 H   0  0  0  0  0  0  0  0  0  0  0  0
  1  2  1  0
  2  3  1  0
  3  4  2  0
  3  5  2  0
  3  6  1  0
  6  7  1  0
  7  8  2  0
  8  9  1  0
  9 10  1  0
 10 11  1  0
 11 12  1  0
 12 13  2  0
 13 14  1  0
 14 15  1  0
 15 16  1  0
 16 17  2  0
 17 18  1  0
 18 19  2  0
 19 20  1  0
 20 21  1  0
 21 22  2  0
 22 23  1  0
 23 24  2  0
 24 25  1  0
 24 26  1  0
 26 27  1  0
 27 28  1  0
 27 29  1  0
 20 30  2  0
 14 31  2  0
 31 32  1  0
  9 33  2  0
 33 34  1  0
 34  6  2  0
 32 11  2  0
 30 16  1  0
 26 21  1  0
  1 35  1  0
  1 36  1  0
  1 37  1  0
  7 38  1  0
  8 39  1  0
 10 40  1  0
 12 41  1  0
 13 42  1  0
 15 43  1  0
 18 44  1  0
 19 45  1  0
 22 46  1  0
 25 47  1  0
 25 48  1  0
 25 49  1  0
 27 50  1  0
 28 51  1  0
 28 52  1  0
 28 53  1  0
 29 54  1  0
 29 55  1  0
 29 56  1  0
 31 57  1  0
 32 58  1  0
 33 59  1  0
 34 60  1  0
M  END
>  <meeko>  (1) 
{"is_sidechain": false}

>  <smiles>  (1) 
COS(=O)(=O)c1ccc(Nc2ccc(Nc3nccc(-c4cnc(C)n4C(C)C)n3)cc2)cc1

>  <vina_score>  (1) 
-9.003

>  <job_id>  (1) 
74e893e26c6983d0

$$$$
