
     RDKit          3D

 59 62  0  0  0  0  0  0  0  0999 V2000
   53.1540   83.3470   25.3430 C   0  0  0  0  0  0  0  0  0  0  0  0
   54.0850   82.2630   25.0430 N   0  0  0  0  0  0  0  0  0  0  0  0
   55.3500   82.3950   25.8040 C   0  0  0  0  0  0  0  0  0  0  0  0
   55.4610   81.4660   27.0340 C   0  0  0  0  0  0  0  0  0  0  0  0
   55.3700   80.0510   26.6170 N   0  0  0  0  0  0  0  0  0  0  0  0
   55.2730   79.0990   27.6420 C   0  0  0  0  0  0  0  0  0  0  0  0
   54.0340   78.5580   28.0290 C   0  0  0  0  0  0  0  0  0  0  0  0
   53.9410   77.5890   29.0300 C   0  0  0  0  0  0  0  0  0  0  0  0
   55.0900   77.1330   29.6620 C   0  0  0  0  0  0  0  0  0  0  0  0
   56.3300   77.6440   29.2880 C   0  0  0  0  0  0  0  0  0  0  0  0
   56.4410   78.6210   28.2790 C   0  0  0  0  0  0  0  0  0  0  0  0
   57.8210   79.1420   27.9290 C   0  0  0  0  0  0  0  0  0  0  0  0
   58.4830   79.9260   29.0420 C   0  0  0  0  0  0  0  0  0  0  0  0
   58.2840   79.5820   30.3830 C   0  0  0  0  0  0  0  0  0  0  0  0
   58.8990   80.3190   31.4000 C   0  0  0  0  0  0  0  0  0  0  0  0
   59.7300   81.4160   31.1170 C   0  0  0  0  0  0  0  0  0  0  0  0
   60.3200   82.1140   32.1900 N   0  0  0  0  0  0  0  0  0  0  0  0
   61.1150   83.2720   31.7380 C   0  0  0  0  0  0  0  0  0  0  0  0
   60.8690   84.4550   32.6680 C   0  0  0  0  0  0  0  0  0  0  0  0
   60.9980   84.1220   34.1530 C   0  0  0  0  0  0  0  0  0  0  0  0
   60.0880   83.1300   34.7200 N   0  0  0  0  0  0  0  0  0  0  0  0
   60.5830   81.7490   34.6640 C   0  0  0  0  0  0  0  0  0  0  0  0
   60.9540   81.2910   33.2370 C   0  0  0  0  0  0  0  0  0  0  0  0
   59.9250   81.7460   29.7700 C   0  0  0  0  0  0  0  0  0  0  0  0
   59.3100   81.0140   28.7460 C   0  0  0  0  0  0  0  0  0  0  0  0
   54.4540   79.7930   25.4810 C   0  0  0  0  0  0  0  0  0  0  0  0
   53.4460   80.9480   25.2830 C   0  0  0  0  0  0  0  0  0  0  0  0
   53.0590   83.4576   26.4333 H   0  0  0  0  0  0  0  0  0  0  0  0
   53.5321   84.2852   24.9109 H   0  0  0  0  0  0  0  0  0  0  0  0
   52.1694   83.1149   24.9109 H   0  0  0  0  0  0  0  0  0  0  0  0
   56.1844   82.1661   25.1248 H   0  0  0  0  0  0  0  0  0  0  0  0
   55.3765   83.4254   26.1883 H   0  0  0  0  0  0  0  0  0  0  0  0
   56.4271   81.6364   27.5316 H   0  0  0  0  0  0  0  0  0  0  0  0
   54.6362   81.6890   27.7268 H   0  0  0  0  0  0  0  0  0  0  0  0
   53.1168   78.9063   27.5316 H   0  0  0  0  0  0  0  0  0  0  0  0
   52.9582   77.1872   29.3176 H   0  0  0  0  0  0  0  0  0  0  0  0
   55.0211   76.3724   30.4537 H   0  0  0  0  0  0  0  0  0  0  0  0
   57.2386   77.2786   29.7889 H   0  0  0  0  0  0  0  0  0  0  0  0
   58.4625   78.2834   27.6816 H   0  0  0  0  0  0  0  0  0  0  0  0
   57.6952   79.8339   27.0832 H   0  0  0  0  0  0  0  0  0  0  0  0
   57.6405   78.7274   30.6390 H   0  0  0  0  0  0  0  0  0  0  0  0
   58.7278   80.0326   32.4482 H   0  0  0  0  0  0  0  0  0  0  0  0
   62.1834   83.0108   31.7526 H   0  0  0  0  0  0  0  0  0  0  0  0
   60.8164   83.5433   30.7146 H   0  0  0  0  0  0  0  0  0  0  0  0
   61.5991   85.2414   32.4262 H   0  0  0  0  0  0  0  0  0  0  0  0
   59.8290   84.7740   32.5050 H   0  0  0  0  0  0  0  0  0  0  0  0
   62.0224   83.7564   34.3174 H   0  0  0  0  0  0  0  0  0  0  0  0
   60.7339   85.0585   34.6660 H   0  0  0  0  0  0  0  0  0  0  0  0
   59.1970   83.1900   34.2290 H   0  0  0  0  0  0  0  0  0  0  0  0
   61.4780   81.6728   35.2990 H   0  0  0  0  0  0  0  0  0  0  0  0
   59.7696   81.0967   35.0145 H   0  0  0  0  0  0  0  0  0  0  0  0
   62.0460   81.3539   33.1204 H   0  0  0  0  0  0  0  0  0  0  0  0
   60.5894   80.2604   33.1145 H   0  0  0  0  0  0  0  0  0  0  0  0
   60.5733   82.5961   29.5111 H   0  0  0  0  0  0  0  0  0  0  0  0
   59.4796   81.2984   27.6970 H   0  0  0  0  0  0  0  0  0  0  0  0
   55.0489   79.6782   24.5629 H   0  0  0  0  0  0  0  0  0  0  0  0
   53.8858   78.8771   25.7009 H   0  0  0  0  0  0  0  0  0  0  0  0
   52.8093   80.7086   24.4186 H   0  0  0  0  0  0  0  0  0  0  0  0
   52.8713   81.0361   26.2168 H   0  0  0  0  0  0  0  0  0  0  0  0
  1  2  1  0
  2  3  1  0
  3  4  1  0
  4  5  1  0
  5  6  1  0
  6  7  2  0
  7  8  1  0
  8  9  2  0
  9 10  1  0
 10 11  2  0
 11 12  1  0
 12 13  1  0
 13 14  1  0
 14 15  2  0
 15 16  1  0
 16 17  1  0
 17 18  1  0
 18 19  1  0
 19 20  1  0
 20 21  1  0
 21 22  1  0
 22 23  1  0
 16 24  2  0
 24 25  1  0
  5 26  1  0
 26 27  1  0
 27  2  1  0
 11  6  1  0
 25 13  2  0
 23 17  1  0
  1 28  1  0
  1 29  1  0
  1 30  1  0
  3 31  1  0
  3 32  1  0
  4 33  1  0
  4 34  1  0
  7 35  1  0
  8 36  1  0
  9 37  1  0
 10 38  1  0
 12 39  1  0
 12 40  1  0
 14 41  1  0
 15 42  1  0
 18 43  1  0
 18 44  1  0
 19 45  1  0
 19 46  1  0
 20 47  1  0
 20 48  1  0
 21 49  1  0
 22 50  1  0
 22 51  1  0
 23 52  1  0
 23 53  1  0
 24 54  1  0
 25 55  1  0
 26 56  1  0
 26 57  1  0
 27 58  1  0
 27 59  1  0
M  END
>  <meeko>  (1) 
{"is_sidechain": false}

>  <smiles>  (1) 
CN1CCN(c2ccccc2Cc2ccc(N3CCCNCC3)cc2)CC1

>  <vina_score>  (1) 
-7.046

>  <job_id>  (1) 
74f681fd953e8a3e

$$$$
