
     RDKit          3D

 57 61  0  0  0  0  0  0  0  0999 V2000
   62.8380   83.9230   34.5280 C   0  0  0  0  0  0  0  0  0  0  0  0
   61.4780   83.6550   34.9870 N   0  0  0  0  0  0  0  0  0  0  0  0
   60.4690   84.3290   34.1400 C   0  0  0  0  0  0  0  0  0  0  0  0
   60.2820   83.7290   32.7260 C   0  0  0  0  0  0  0  0  0  0  0  0
   60.0100   82.2800   32.7980 N   0  0  0  0  0  0  0  0  0  0  0  0
   59.6200   81.6140   31.6240 C   0  0  0  0  0  0  0  0  0  0  0  0
   60.1600   82.0070   30.3920 C   0  0  0  0  0  0  0  0  0  0  0  0
   59.8040   81.3710   29.2030 C   0  0  0  0  0  0  0  0  0  0  0  0
   58.9020   80.3080   29.2200 C   0  0  0  0  0  0  0  0  0  0  0  0
   58.3540   79.8570   30.4190 C   0  0  0  0  0  0  0  0  0  0  0  0
   57.4350   78.8030   30.5110 N   0  0  0  0  0  0  0  0  0  0  0  0
   56.3940   78.3510   29.7040 C   0  0  0  0  0  0  0  0  0  0  0  0
   55.8120   77.1560   29.8960 N   0  0  0  0  0  0  0  0  0  0  0  0
   54.8110   76.7980   29.0680 C   0  0  0  0  0  0  0  0  0  0  0  0
   54.3540   77.5970   28.0550 C   0  0  0  0  0  0  0  0  0  0  0  0
   55.0310   78.7990   27.9310 C   0  0  0  0  0  0  0  0  0  0  0  0
   56.0350   79.2000   28.7270 N   0  0  0  0  0  0  0  0  0  0  0  0
   54.5950   79.6990   26.8800 C   0  0  0  0  0  0  0  0  0  0  0  0
   53.4430   79.5020   26.1420 C   0  0  0  0  0  0  0  0  0  0  0  0
   53.3800   80.5840   25.2320 C   0  0  0  0  0  0  0  0  0  0  0  0
   52.3390   80.8610   24.2320 C   0  0  0  0  0  0  0  0  0  0  0  0
   52.8090   80.9820   22.9550 N   0  0  0  0  0  0  0  0  0  0  0  0
   51.1460   80.9820   24.4930 O   0  0  0  0  0  0  0  0  0  0  0  0
   54.4460   81.4020   25.3900 N   0  0  0  0  0  0  0  0  0  0  0  0
   55.1580   80.8420   26.3980 N   0  0  0  0  0  0  0  0  0  0  0  0
   56.3840   81.4720   26.8270 C   0  0  0  0  0  0  0  0  0  0  0  0
   52.5290   78.3540   26.4050 C   0  0  0  0  0  0  0  0  0  0  0  0
   53.2810   77.1780   27.0790 C   0  0  0  0  0  0  0  0  0  0  0  0
   58.7270   80.5260   31.6060 C   0  0  0  0  0  0  0  0  0  0  0  0
   61.0010   81.5390   33.6160 C   0  0  0  0  0  0  0  0  0  0  0  0
   61.1850   82.2040   35.0020 C   0  0  0  0  0  0  0  0  0  0  0  0
   63.4994   84.0533   35.3973 H   0  0  0  0  0  0  0  0  0  0  0  0
   63.1932   83.0776   33.9205 H   0  0  0  0  0  0  0  0  0  0  0  0
   62.8459   84.8400   33.9205 H   0  0  0  0  0  0  0  0  0  0  0  0
   59.5012   84.2794   34.6605 H   0  0  0  0  0  0  0  0  0  0  0  0
   60.8370   85.3544   33.9880 H   0  0  0  0  0  0  0  0  0  0  0  0
   59.4364   84.2296   32.2317 H   0  0  0  0  0  0  0  0  0  0  0  0
   61.2090   83.8836   32.1543 H   0  0  0  0  0  0  0  0  0  0  0  0
   60.8816   82.8367   30.3621 H   0  0  0  0  0  0  0  0  0  0  0  0
   60.2359   81.7089   28.2494 H   0  0  0  0  0  0  0  0  0  0  0  0
   58.6197   79.8196   28.2757 H   0  0  0  0  0  0  0  0  0  0  0  0
   57.5580   78.1600   31.2770 H   0  0  0  0  0  0  0  0  0  0  0  0
   54.3380   75.8156   29.2133 H   0  0  0  0  0  0  0  0  0  0  0  0
   52.1780   81.2090   22.2040 H   0  0  0  0  0  0  0  0  0  0  0  0
   53.8100   80.9080   22.8030 H   0  0  0  0  0  0  0  0  0  0  0  0
   56.4213   81.4912   27.9262 H   0  0  0  0  0  0  0  0  0  0  0  0
   57.2430   80.9036   26.4408 H   0  0  0  0  0  0  0  0  0  0  0  0
   56.4220   82.5013   26.4408 H   0  0  0  0  0  0  0  0  0  0  0  0
   51.7170   78.6871   27.0682 H   0  0  0  0  0  0  0  0  0  0  0  0
   52.1269   78.0031   25.4432 H   0  0  0  0  0  0  0  0  0  0  0  0
   52.5452   76.5649   27.6200 H   0  0  0  0  0  0  0  0  0  0  0  0
   53.7893   76.6291   26.2726 H   0  0  0  0  0  0  0  0  0  0  0  0
   58.3003   80.1811   32.5594 H   0  0  0  0  0  0  0  0  0  0  0  0
   60.6508   80.5057   33.7565 H   0  0  0  0  0  0  0  0  0  0  0  0
   61.9675   81.5504   33.0908 H   0  0  0  0  0  0  0  0  0  0  0  0
   60.2580   82.0529   35.5745 H   0  0  0  0  0  0  0  0  0  0  0  0
   62.0695   81.7254   35.4477 H   0  0  0  0  0  0  0  0  0  0  0  0
  1  2  1  0
  2  3  1  0
  3  4  1  0
  4  5  1  0
  5  6  1  0
  6  7  2  0
  7  8  1  0
  8  9  2  0
  9 10  1  0
 10 11  1  0
 11 12  1  0
 12 13  2  0
 13 14  1  0
 14 15  2  0
 15 16  1  0
 16 17  2  0
 16 18  1  0
 18 19  2  0
 19 20  1  0
 20 21  1  0
 21 22  1  0
 21 23  2  0
 20 24  2  0
 24 25  1  0
 25 26  1  0
 19 27  1  0
 27 28  1  0
 10 29  2  0
  5 30  1  0
 30 31  1  0
 31  2  1  0
 29  6  1  0
 17 12  1  0
 25 18  1  0
 28 15  1  0
  1 32  1  0
  1 33  1  0
  1 34  1  0
  3 35  1  0
  3 36  1  0
  4 37  1  0
  4 38  1  0
  7 39  1  0
  8 40  1  0
  9 41  1  0
 11 42  1  0
 14 43  1  0
 22 44  1  0
 22 45  1  0
 26 46  1  0
 26 47  1  0
 26 48  1  0
 27 49  1  0
 27 50  1  0
 28 51  1  0
 28 52  1  0
 29 53  1  0
 30 54  1  0
 30 55  1  0
 31 56  1  0
 31 57  1  0
M  END
>  <meeko>  (1) 
{"is_sidechain": false}

>  <smiles>  (1) 
CN1CCN(c2cccc(Nc3ncc4c(n3)-c3c(c(C(N)=O)nn3C)CC4)c2)CC1

>  <vina_score>  (1) 
-9.078

>  <job_id>  (1) 
75cf081d73c36d52

$$$$
