
     RDKit          3D

 61 64  0  0  0  0  0  0  0  0999 V2000
   53.0500   81.7080   23.8650 C   0  0  0  0  0  0  0  0  0  0  0  0
   53.2670   80.4780   24.6710 C   0  0  0  0  0  0  0  0  0  0  0  0
   52.8770   79.2820   24.2800 N   0  0  0  0  0  0  0  0  0  0  0  0
   53.3100   78.4160   25.2360 C   0  0  0  0  0  0  0  0  0  0  0  0
   53.9740   79.0700   26.2550 C   0  0  0  0  0  0  0  0  0  0  0  0
   54.6020   78.5040   27.4420 C   0  0  0  0  0  0  0  0  0  0  0  0
   53.9380   77.6200   28.2580 C   0  0  0  0  0  0  0  0  0  0  0  0
   54.6630   77.1550   29.3240 C   0  0  0  0  0  0  0  0  0  0  0  0
   55.9350   77.5170   29.5710 N   0  0  0  0  0  0  0  0  0  0  0  0
   56.5110   78.3730   28.7100 C   0  0  0  0  0  0  0  0  0  0  0  0
   57.8190   78.7320   29.0220 N   0  0  0  0  0  0  0  0  0  0  0  0
   58.3930   79.8520   29.6320 C   0  0  0  0  0  0  0  0  0  0  0  0
   58.9430   80.8520   28.8110 C   0  0  0  0  0  0  0  0  0  0  0  0
   59.5680   81.9790   29.3540 C   0  0  0  0  0  0  0  0  0  0  0  0
   59.6560   82.1090   30.7400 C   0  0  0  0  0  0  0  0  0  0  0  0
   60.4250   83.5600   31.4210 S   0  0  0  0  0  0  0  0  0  0  0  0
   59.6410   84.7130   31.0200 O   0  0  0  0  0  0  0  0  0  0  0  0
   60.6540   83.2800   32.8250 O   0  0  0  0  0  0  0  0  0  0  0  0
   61.8780   83.6110   30.6710 O   0  0  0  0  0  0  0  0  0  0  0  0
   62.8670   84.4430   30.9950 C   0  0  0  0  0  0  0  0  0  0  0  0
   63.0010   85.8160   31.0130 C   0  0  0  0  0  0  0  0  0  0  0  0
   64.2240   86.1900   31.5100 N   0  0  0  0  0  0  0  0  0  0  0  0
   64.8630   85.0700   31.7970 C   0  0  0  0  0  0  0  0  0  0  0  0
   66.2200   85.0120   32.4000 C   0  0  0  0  0  0  0  0  0  0  0  0
   64.0920   83.9890   31.4370 N   0  0  0  0  0  0  0  0  0  0  0  0
   64.4900   82.3600   31.7190 S   0  0  0  0  0  0  0  0  0  0  0  0
   65.0050   81.8520   30.4630 O   0  0  0  0  0  0  0  0  0  0  0  0
   65.3300   82.3800   32.8990 O   0  0  0  0  0  0  0  0  0  0  0  0
   63.0910   81.4900   32.1450 N   0  0  0  0  0  0  0  0  0  0  0  0
   63.0600   80.9820   33.7830 S   0  0  0  0  0  0  0  0  0  0  0  0
   59.1270   81.1310   31.5790 C   0  0  0  0  0  0  0  0  0  0  0  0
   58.5050   80.0100   31.0200 C   0  0  0  0  0  0  0  0  0  0  0  0
   55.8760   78.8800   27.6450 N   0  0  0  0  0  0  0  0  0  0  0  0
   53.9070   80.4130   25.9000 N   0  0  0  0  0  0  0  0  0  0  0  0
   54.3620   81.5360   26.7220 C   0  0  0  0  0  0  0  0  0  0  0  0
   55.5600   82.2830   26.1350 C   0  0  0  0  0  0  0  0  0  0  0  0
   53.2190   82.4820   27.1000 C   0  0  0  0  0  0  0  0  0  0  0  0
   52.8988   82.5652   24.5376 H   0  0  0  0  0  0  0  0  0  0  0  0
   53.9298   81.8906   23.2305 H   0  0  0  0  0  0  0  0  0  0  0  0
   52.1608   81.5785   23.2305 H   0  0  0  0  0  0  0  0  0  0  0  0
   53.1507   77.3282   25.2014 H   0  0  0  0  0  0  0  0  0  0  0  0
   52.9001   77.3083   28.0693 H   0  0  0  0  0  0  0  0  0  0  0  0
   54.1792   76.4483   30.0143 H   0  0  0  0  0  0  0  0  0  0  0  0
   58.4460   78.0370   28.6450 H   0  0  0  0  0  0  0  0  0  0  0  0
   58.8804   80.7456   27.7179 H   0  0  0  0  0  0  0  0  0  0  0  0
   59.9857   82.7546   28.6952 H   0  0  0  0  0  0  0  0  0  0  0  0
   62.2273   86.5200   30.6728 H   0  0  0  0  0  0  0  0  0  0  0  0
   66.1344   85.0157   33.4967 H   0  0  0  0  0  0  0  0  0  0  0  0
   66.7267   84.0914   32.0748 H   0  0  0  0  0  0  0  0  0  0  0  0
   66.8034   85.8860   32.0748 H   0  0  0  0  0  0  0  0  0  0  0  0
   62.8200   80.7910   31.4520 H   0  0  0  0  0  0  0  0  0  0  0  0
   63.1000   82.1910   34.3790 H   0  0  0  0  0  0  0  0  0  0  0  0
   59.1978   81.2394   32.6714 H   0  0  0  0  0  0  0  0  0  0  0  0
   58.0947   79.2353   31.6844 H   0  0  0  0  0  0  0  0  0  0  0  0
   54.7277   81.0825   27.6551 H   0  0  0  0  0  0  0  0  0  0  0  0
   56.1852   82.6728   26.9518 H   0  0  0  0  0  0  0  0  0  0  0  0
   56.1536   81.5947   25.5154 H   0  0  0  0  0  0  0  0  0  0  0  0
   55.2032   83.1189   25.5154 H   0  0  0  0  0  0  0  0  0  0  0  0
   53.1425   82.5453   28.1955 H   0  0  0  0  0  0  0  0  0  0  0  0
   53.4193   83.4821   26.6880 H   0  0  0  0  0  0  0  0  0  0  0  0
   52.2740   82.0983   26.6880 H   0  0  0  0  0  0  0  0  0  0  0  0
  1  2  1  0
  2  3  2  0
  3  4  1  0
  4  5  2  0
  5  6  1  0
  6  7  1  0
  7  8  2  0
  8  9  1  0
  9 10  2  0
 10 11  1  0
 11 12  1  0
 12 13  1  0
 13 14  2  0
 14 15  1  0
 15 16  1  0
 16 17  2  0
 16 18  2  0
 16 19  1  0
 19 20  1  0
 20 21  2  0
 21 22  1  0
 22 23  2  0
 23 24  1  0
 23 25  1  0
 25 26  1  0
 26 27  2  0
 26 28  2  0
 26 29  1  0
 29 30  1  0
 15 31  2  0
 31 32  1  0
 10 33  1  0
  5 34  1  0
 34 35  1  0
 35 36  1  0
 35 37  1  0
 34  2  1  0
 33  6  2  0
 32 12  2  0
 25 20  1  0
  1 38  1  0
  1 39  1  0
  1 40  1  0
  4 41  1  0
  7 42  1  0
  8 43  1  0
 11 44  1  0
 13 45  1  0
 14 46  1  0
 21 47  1  0
 24 48  1  0
 24 49  1  0
 24 50  1  0
 29 51  1  0
 30 52  1  0
 31 53  1  0
 32 54  1  0
 35 55  1  0
 36 56  1  0
 36 57  1  0
 36 58  1  0
 37 59  1  0
 37 60  1  0
 37 61  1  0
M  END
>  <meeko>  (1) 
{"is_sidechain": false}

>  <smiles>  (1) 
Cc1ncc(-c2ccnc(Nc3ccc(S(=O)(=O)Oc4cnc(C)n4S(=O)(=O)NS)cc3)n2)n1C(C)C

>  <vina_score>  (1) 
-8.771

>  <job_id>  (1) 
75db048407355e42

$$$$
