
     RDKit          3D

 40 43  0  0  0  0  0  0  0  0999 V2000
   63.7720   81.3600   30.6680 N   0  0  0  0  0  0  0  0  0  0  0  0
   63.2420   82.0870   32.0920 S   0  0  0  0  0  0  0  0  0  0  0  0
   64.3250   82.9620   32.4740 O   0  0  0  0  0  0  0  0  0  0  0  0
   62.8030   80.9840   32.9160 O   0  0  0  0  0  0  0  0  0  0  0  0
   61.8330   83.0390   31.5050 C   0  0  0  0  0  0  0  0  0  0  0  0
   60.7050   82.0980   31.1730 C   0  0  0  0  0  0  0  0  0  0  0  0
   59.8930   81.5710   32.1880 C   0  0  0  0  0  0  0  0  0  0  0  0
   58.8430   80.7040   31.8760 C   0  0  0  0  0  0  0  0  0  0  0  0
   58.5930   80.3430   30.5520 C   0  0  0  0  0  0  0  0  0  0  0  0
   57.5320   79.4820   30.2410 N   0  0  0  0  0  0  0  0  0  0  0  0
   57.0540   79.5950   29.0370 C   0  0  0  0  0  0  0  0  0  0  0  0
   55.9550   78.7330   28.6510 C   0  0  0  0  0  0  0  0  0  0  0  0
   55.6930   77.5160   29.2740 C   0  0  0  0  0  0  0  0  0  0  0  0
   56.3100   76.8940   30.2730 O   0  0  0  0  0  0  0  0  0  0  0  0
   54.5990   76.9290   28.6980 N   0  0  0  0  0  0  0  0  0  0  0  0
   54.1120   77.7240   27.6940 C   0  0  0  0  0  0  0  0  0  0  0  0
   53.0310   77.5770   26.8200 C   0  0  0  0  0  0  0  0  0  0  0  0
   52.7990   78.6080   25.8810 C   0  0  0  0  0  0  0  0  0  0  0  0
   53.6290   79.7500   25.8240 C   0  0  0  0  0  0  0  0  0  0  0  0
   53.5270   80.8320   24.9680 N   0  0  0  0  0  0  0  0  0  0  0  0
   54.4940   81.6830   25.2420 C   0  0  0  0  0  0  0  0  0  0  0  0
   55.5540   81.2370   26.5190 S   0  0  0  0  0  0  0  0  0  0  0  0
   54.6820   79.8330   26.7210 C   0  0  0  0  0  0  0  0  0  0  0  0
   54.9320   78.8430   27.6460 C   0  0  0  0  0  0  0  0  0  0  0  0
   59.3840   80.8820   29.5370 C   0  0  0  0  0  0  0  0  0  0  0  0
   60.4350   81.7500   29.8420 C   0  0  0  0  0  0  0  0  0  0  0  0
   62.9630   81.1340   30.0840 H   0  0  0  0  0  0  0  0  0  0  0  0
   64.4400   81.9770   30.2010 H   0  0  0  0  0  0  0  0  0  0  0  0
   61.5095   83.7394   32.2891 H   0  0  0  0  0  0  0  0  0  0  0  0
   62.1181   83.6065   30.6069 H   0  0  0  0  0  0  0  0  0  0  0  0
   60.0843   81.8422   33.2367 H   0  0  0  0  0  0  0  0  0  0  0  0
   58.2087   80.3030   32.6803 H   0  0  0  0  0  0  0  0  0  0  0  0
   57.4730   80.3260   28.3298 H   0  0  0  0  0  0  0  0  0  0  0  0
   55.7720   76.0880   30.4560 H   0  0  0  0  0  0  0  0  0  0  0  0
   54.2210   76.0380   28.9850 H   0  0  0  0  0  0  0  0  0  0  0  0
   52.3828   76.6892   26.8615 H   0  0  0  0  0  0  0  0  0  0  0  0
   51.9554   78.5194   25.1807 H   0  0  0  0  0  0  0  0  0  0  0  0
   54.6161   82.6242   24.6860 H   0  0  0  0  0  0  0  0  0  0  0  0
   59.1784   80.6214   28.4883 H   0  0  0  0  0  0  0  0  0  0  0  0
   61.0549   82.1632   29.0326 H   0  0  0  0  0  0  0  0  0  0  0  0
  1  2  1  0
  2  3  2  0
  2  4  2  0
  2  5  1  0
  5  6  1  0
  6  7  1  0
  7  8  2  0
  8  9  1  0
  9 10  1  0
 10 11  2  3
 11 12  1  0
 12 13  2  0
 13 14  1  0
 13 15  1  0
 15 16  1  0
 16 17  2  0
 17 18  1  0
 18 19  2  0
 19 20  1  0
 20 21  2  0
 21 22  1  0
 22 23  1  0
 23 24  2  0
  9 25  2  0
 25 26  1  0
 26  6  2  0
 24 12  1  0
 24 16  1  0
 23 19  1  0
  1 27  1  0
  1 28  1  0
  5 29  1  0
  5 30  1  0
  7 31  1  0
  8 32  1  0
 11 33  1  0
 14 34  1  0
 15 35  1  0
 17 36  1  0
 18 37  1  0
 21 38  1  0
 25 39  1  0
 26 40  1  0
M  END
>  <meeko>  (1) 
{"is_sidechain": false}

>  <smiles>  (1) 
NS(=O)(=O)Cc1ccc(N=Cc2c(O)[nH]c3ccc4ncsc4c23)cc1

>  <vina_score>  (1) 
-7.830

>  <job_id>  (1) 
75e98ba7394d787b

$$$$
