
     RDKit          3D

 69 74  0  0  0  0  0  0  0  0999 V2000
   52.6530   81.3010   22.3620 C   0  0  0  0  0  0  0  0  0  0  0  0
   52.9410   80.6790   23.6510 N   0  0  0  0  0  0  0  0  0  0  0  0
   51.9370   81.0250   24.6680 C   0  0  0  0  0  0  0  0  0  0  0  0
   52.2560   80.7040   26.1490 C   0  0  0  0  0  0  0  0  0  0  0  0
   52.4730   79.2790   26.4230 N   0  0  0  0  0  0  0  0  0  0  0  0
   53.7670   78.9050   26.0010 N   0  0  0  0  0  0  0  0  0  0  0  0
   54.8610   79.2880   26.8180 C   0  0  0  0  0  0  0  0  0  0  0  0
   55.2220   78.5940   27.9840 C   0  0  0  0  0  0  0  0  0  0  0  0
   56.3040   78.9980   28.7840 C   0  0  0  0  0  0  0  0  0  0  0  0
   57.0740   80.1190   28.4550 C   0  0  0  0  0  0  0  0  0  0  0  0
   58.2080   80.5420   29.2920 C   0  0  0  0  0  0  0  0  0  0  0  0
   58.2810   80.1930   30.6460 C   0  0  0  0  0  0  0  0  0  0  0  0
   59.3610   80.5950   31.4460 C   0  0  0  0  0  0  0  0  0  0  0  0
   60.4060   81.3580   30.9230 C   0  0  0  0  0  0  0  0  0  0  0  0
   61.5100   81.7920   31.6650 N   0  0  0  0  0  0  0  0  0  0  0  0
   62.7730   82.2730   31.3350 C   0  0  0  0  0  0  0  0  0  0  0  0
   63.8620   81.4860   31.3530 N   0  0  0  0  0  0  0  0  0  0  0  0
   65.0450   82.0310   31.0140 C   0  0  0  0  0  0  0  0  0  0  0  0
   65.1860   83.3400   30.6380 C   0  0  0  0  0  0  0  0  0  0  0  0
   64.0080   84.0710   30.6670 C   0  0  0  0  0  0  0  0  0  0  0  0
   62.8080   83.5730   31.0000 N   0  0  0  0  0  0  0  0  0  0  0  0
   64.0860   85.4650   30.2740 C   0  0  0  0  0  0  0  0  0  0  0  0
   65.2000   86.0330   29.6840 C   0  0  0  0  0  0  0  0  0  0  0  0
   64.8750   87.4040   29.4860 C   0  0  0  0  0  0  0  0  0  0  0  0
   65.6890   88.4660   28.8720 C   0  0  0  0  0  0  0  0  0  0  0  0
   65.6260   89.6920   29.4880 N   0  0  0  0  0  0  0  0  0  0  0  0
   66.4220   88.3170   27.8980 O   0  0  0  0  0  0  0  0  0  0  0  0
   63.6350   87.6560   29.9500 N   0  0  0  0  0  0  0  0  0  0  0  0
   63.1830   86.4740   30.4170 N   0  0  0  0  0  0  0  0  0  0  0  0
   61.8690   86.4120   31.0110 C   0  0  0  0  0  0  0  0  0  0  0  0
   66.4150   85.2200   29.3860 C   0  0  0  0  0  0  0  0  0  0  0  0
   66.5130   83.9850   30.3200 C   0  0  0  0  0  0  0  0  0  0  0  0
   60.3320   81.7070   29.5660 C   0  0  0  0  0  0  0  0  0  0  0  0
   59.2540   81.3090   28.7640 C   0  0  0  0  0  0  0  0  0  0  0  0
   56.7220   80.8230   27.2980 C   0  0  0  0  0  0  0  0  0  0  0  0
   55.6410   80.4160   26.5050 C   0  0  0  0  0  0  0  0  0  0  0  0
   54.0270   78.5090   24.6040 C   0  0  0  0  0  0  0  0  0  0  0  0
   53.1570   79.2250   23.5460 C   0  0  0  0  0  0  0  0  0  0  0  0
   52.1959   82.2881   22.5252 H   0  0  0  0  0  0  0  0  0  0  0  0
   53.5881   81.4191   21.7948 H   0  0  0  0  0  0  0  0  0  0  0  0
   51.9580   80.6644   21.7948 H   0  0  0  0  0  0  0  0  0  0  0  0
   51.7630   82.1090   24.5992 H   0  0  0  0  0  0  0  0  0  0  0  0
   51.0750   80.3846   24.4295 H   0  0  0  0  0  0  0  0  0  0  0  0
   53.1666   81.2522   26.4322 H   0  0  0  0  0  0  0  0  0  0  0  0
   51.3758   81.0077   26.7346 H   0  0  0  0  0  0  0  0  0  0  0  0
   52.3270   79.0710   27.4120 H   0  0  0  0  0  0  0  0  0  0  0  0
   54.6407   77.7082   28.2797 H   0  0  0  0  0  0  0  0  0  0  0  0
   56.5509   78.4212   29.6875 H   0  0  0  0  0  0  0  0  0  0  0  0
   57.4751   79.5913   31.0915 H   0  0  0  0  0  0  0  0  0  0  0  0
   59.3847   80.3031   32.5063 H   0  0  0  0  0  0  0  0  0  0  0  0
   61.4100   81.7910   32.6680 H   0  0  0  0  0  0  0  0  0  0  0  0
   65.9416   81.3943   31.0403 H   0  0  0  0  0  0  0  0  0  0  0  0
   65.3670   89.7340   30.4630 H   0  0  0  0  0  0  0  0  0  0  0  0
   66.3340   90.3420   29.1730 H   0  0  0  0  0  0  0  0  0  0  0  0
   61.9615   86.4164   32.1071 H   0  0  0  0  0  0  0  0  0  0  0  0
   61.2797   87.2833   30.6893 H   0  0  0  0  0  0  0  0  0  0  0  0
   61.3644   85.4890   30.6893 H   0  0  0  0  0  0  0  0  0  0  0  0
   66.3685   84.8764   28.3421 H   0  0  0  0  0  0  0  0  0  0  0  0
   67.3018   85.8497   29.5506 H   0  0  0  0  0  0  0  0  0  0  0  0
   67.1529   83.2345   29.8328 H   0  0  0  0  0  0  0  0  0  0  0  0
   66.9256   84.3438   31.2745 H   0  0  0  0  0  0  0  0  0  0  0  0
   61.1393   82.3073   29.1212 H   0  0  0  0  0  0  0  0  0  0  0  0
   59.2290   81.6033   27.7044 H   0  0  0  0  0  0  0  0  0  0  0  0
   57.3033   81.7102   27.0064 H   0  0  0  0  0  0  0  0  0  0  0  0
   55.3935   80.9992   25.6058 H   0  0  0  0  0  0  0  0  0  0  0  0
   55.0821   78.7243   24.3797 H   0  0  0  0  0  0  0  0  0  0  0  0
   53.7735   77.4407   24.5365 H   0  0  0  0  0  0  0  0  0  0  0  0
   53.6252   79.0404   22.5679 H   0  0  0  0  0  0  0  0  0  0  0  0
   52.1543   78.8016   23.7049 H   0  0  0  0  0  0  0  0  0  0  0  0
  1  2  1  0
  2  3  1  0
  3  4  1  0
  4  5  1  0
  5  6  1  0
  6  7  1  0
  7  8  1  0
  8  9  2  0
  9 10  1  0
 10 11  1  0
 11 12  1  0
 12 13  2  0
 13 14  1  0
 14 15  1  0
 15 16  1  0
 16 17  2  0
 17 18  1  0
 18 19  2  0
 19 20  1  0
 20 21  2  0
 20 22  1  0
 22 23  2  0
 23 24  1  0
 24 25  1  0
 25 26  1  0
 25 27  2  0
 24 28  2  0
 28 29  1  0
 29 30  1  0
 23 31  1  0
 31 32  1  0
 14 33  2  0
 33 34  1  0
 10 35  2  0
 35 36  1  0
  6 37  1  0
 37 38  1  0
 38  2  1  0
 36  7  2  0
 34 11  2  0
 21 16  1  0
 29 22  1  0
 32 19  1  0
  1 39  1  0
  1 40  1  0
  1 41  1  0
  3 42  1  0
  3 43  1  0
  4 44  1  0
  4 45  1  0
  5 46  1  0
  8 47  1  0
  9 48  1  0
 12 49  1  0
 13 50  1  0
 15 51  1  0
 18 52  1  0
 26 53  1  0
 26 54  1  0
 30 55  1  0
 30 56  1  0
 30 57  1  0
 31 58  1  0
 31 59  1  0
 32 60  1  0
 32 61  1  0
 33 62  1  0
 34 63  1  0
 35 64  1  0
 36 65  1  0
 37 66  1  0
 37 67  1  0
 38 68  1  0
 38 69  1  0
M  END
>  <meeko>  (1) 
{"is_sidechain": false}

>  <smiles>  (1) 
CN1CCNN(c2ccc(-c3ccc(Nc4ncc5c(n4)-c4c(c(C(N)=O)nn4C)CC5)cc3)cc2)CC1

>  <vina_score>  (1) 
-6.812

>  <job_id>  (1) 
75fcdad4e61e5df5

$$$$
