
     RDKit          3D

 36 37  0  0  0  0  0  0  0  0999 V2000
   51.0620   83.9050   21.0560 C   0  0  0  0  0  0  0  0  0  0  0  0
   51.8100   83.0270   22.0380 C   0  0  0  0  0  0  0  0  0  0  0  0
   51.2300   81.3430   22.0730 S   0  0  0  0  0  0  0  0  0  0  0  0
   51.7500   80.6680   20.9000 O   0  0  0  0  0  0  0  0  0  0  0  0
   49.8030   81.3570   22.3420 O   0  0  0  0  0  0  0  0  0  0  0  0
   52.0410   80.6200   23.4800 C   0  0  0  0  0  0  0  0  0  0  0  0
   52.0340   81.3020   24.6970 C   0  0  0  0  0  0  0  0  0  0  0  0
   52.6760   80.7400   25.8030 C   0  0  0  0  0  0  0  0  0  0  0  0
   53.3420   79.5040   25.7070 C   0  0  0  0  0  0  0  0  0  0  0  0
   54.0190   78.9190   26.8760 C   0  0  0  0  0  0  0  0  0  0  0  0
   53.4160   77.8920   27.6250 C   0  0  0  0  0  0  0  0  0  0  0  0
   54.0600   77.3210   28.7280 C   0  0  0  0  0  0  0  0  0  0  0  0
   55.3220   77.7700   29.1090 C   0  0  0  0  0  0  0  0  0  0  0  0
   55.9260   78.7960   28.3810 C   0  0  0  0  0  0  0  0  0  0  0  0
   57.5360   79.3780   28.8420 S   0  0  0  0  0  0  0  0  0  0  0  0
   58.5070   78.0840   28.3760 N   0  0  0  0  0  0  0  0  0  0  0  0
   57.8980   80.4700   27.9690 O   0  0  0  0  0  0  0  0  0  0  0  0
   57.5880   79.4820   30.2810 O   0  0  0  0  0  0  0  0  0  0  0  0
   55.2910   79.3630   27.2700 C   0  0  0  0  0  0  0  0  0  0  0  0
   53.3480   78.8480   24.4630 C   0  0  0  0  0  0  0  0  0  0  0  0
   52.7070   79.4010   23.3510 C   0  0  0  0  0  0  0  0  0  0  0  0
   50.4450   84.6293   21.6080 H   0  0  0  0  0  0  0  0  0  0  0  0
   51.7826   84.4441   20.4235 H   0  0  0  0  0  0  0  0  0  0  0  0
   50.4153   83.2792   20.4235 H   0  0  0  0  0  0  0  0  0  0  0  0
   52.8743   83.0227   21.7601 H   0  0  0  0  0  0  0  0  0  0  0  0
   51.6414   83.4475   23.0404 H   0  0  0  0  0  0  0  0  0  0  0  0
   51.5271   82.2743   24.7849 H   0  0  0  0  0  0  0  0  0  0  0  0
   52.6607   81.2726   26.7653 H   0  0  0  0  0  0  0  0  0  0  0  0
   52.4177   77.5305   27.3375 H   0  0  0  0  0  0  0  0  0  0  0  0
   53.5689   76.5164   29.2950 H   0  0  0  0  0  0  0  0  0  0  0  0
   55.8359   77.3219   29.9722 H   0  0  0  0  0  0  0  0  0  0  0  0
   58.8880   78.1830   27.4350 H   0  0  0  0  0  0  0  0  0  0  0  0
   59.2420   77.9570   29.0730 H   0  0  0  0  0  0  0  0  0  0  0  0
   55.7917   80.1612   26.7023 H   0  0  0  0  0  0  0  0  0  0  0  0
   53.8662   77.8828   24.3635 H   0  0  0  0  0  0  0  0  0  0  0  0
   52.7274   78.8797   22.3826 H   0  0  0  0  0  0  0  0  0  0  0  0
  1  2  1  0
  2  3  1  0
  3  4  2  0
  3  5  2  0
  3  6  1  0
  6  7  1  0
  7  8  2  0
  8  9  1  0
  9 10  1  0
 10 11  1  0
 11 12  2  0
 12 13  1  0
 13 14  2  0
 14 15  1  0
 15 16  1  0
 15 17  2  0
 15 18  2  0
 14 19  1  0
  9 20  2  0
 20 21  1  0
 21  6  2  0
 19 10  2  0
  1 22  1  0
  1 23  1  0
  1 24  1  0
  2 25  1  0
  2 26  1  0
  7 27  1  0
  8 28  1  0
 11 29  1  0
 12 30  1  0
 13 31  1  0
 16 32  1  0
 16 33  1  0
 19 34  1  0
 20 35  1  0
 21 36  1  0
M  END
>  <meeko>  (1) 
{"is_sidechain": false}

>  <smiles>  (1) 
CCS(=O)(=O)c1ccc(-c2cccc(S(N)(=O)=O)c2)cc1

>  <vina_score>  (1) 
-7.672

>  <job_id>  (1) 
76334fa3cd0b259f

$$$$
