
     RDKit          3D

 37 40  0  0  0  0  0  0  0  0999 V2000
   51.1810   75.7310   25.7480 N   0  0  0  0  0  0  0  0  0  0  0  0
   52.1880   74.7410   26.1410 C   0  0  0  0  0  0  0  0  0  0  0  0
   53.0540   75.2580   27.2910 C   0  0  0  0  0  0  0  0  0  0  0  0
   52.2370   76.6750   28.1060 S   0  0  0  0  0  0  0  0  0  0  0  0
   53.3410   77.9780   27.5700 C   0  0  0  0  0  0  0  0  0  0  0  0
   52.9120   78.7750   26.4760 C   0  0  0  0  0  0  0  0  0  0  0  0
   53.6900   79.8340   25.9530 C   0  0  0  0  0  0  0  0  0  0  0  0
   53.1750   80.6190   24.8340 C   0  0  0  0  0  0  0  0  0  0  0  0
   52.4910   81.8230   24.8090 C   0  0  0  0  0  0  0  0  0  0  0  0
   52.2030   82.1440   23.4600 C   0  0  0  0  0  0  0  0  0  0  0  0
   52.7180   81.1340   22.6840 C   0  0  0  0  0  0  0  0  0  0  0  0
   53.3100   80.2230   23.5190 N   0  0  0  0  0  0  0  0  0  0  0  0
   54.9130   80.0650   26.5620 C   0  0  0  0  0  0  0  0  0  0  0  0
   55.3270   79.2760   27.6160 C   0  0  0  0  0  0  0  0  0  0  0  0
   56.5690   79.6760   28.0420 C   0  0  0  0  0  0  0  0  0  0  0  0
   57.2150   79.0500   29.0820 C   0  0  0  0  0  0  0  0  0  0  0  0
   56.5520   77.9780   29.6900 C   0  0  0  0  0  0  0  0  0  0  0  0
   55.2770   77.5690   29.2460 C   0  0  0  0  0  0  0  0  0  0  0  0
   54.7030   76.5340   29.8780 F   0  0  0  0  0  0  0  0  0  0  0  0
   54.6080   78.2190   28.1730 C   0  0  0  0  0  0  0  0  0  0  0  0
   56.9870   80.7430   27.2630 N   0  0  0  0  0  0  0  0  0  0  0  0
   56.0170   81.0380   26.3180 C   0  0  0  0  0  0  0  0  0  0  0  0
   56.0850   81.9120   25.4790 O   0  0  0  0  0  0  0  0  0  0  0  0
   51.5540   76.6660   25.9110 H   0  0  0  0  0  0  0  0  0  0  0  0
   50.3630   75.6460   26.3510 H   0  0  0  0  0  0  0  0  0  0  0  0
   51.6793   73.8197   26.4612 H   0  0  0  0  0  0  0  0  0  0  0  0
   52.8389   74.5447   25.2763 H   0  0  0  0  0  0  0  0  0  0  0  0
   53.2024   74.4524   28.0251 H   0  0  0  0  0  0  0  0  0  0  0  0
   54.0254   75.5843   26.8911 H   0  0  0  0  0  0  0  0  0  0  0  0
   51.9357   78.5603   26.0170 H   0  0  0  0  0  0  0  0  0  0  0  0
   52.2180   82.4268   25.6870 H   0  0  0  0  0  0  0  0  0  0  0  0
   51.6673   83.0351   23.1008 H   0  0  0  0  0  0  0  0  0  0  0  0
   52.6646   81.0683   21.5873 H   0  0  0  0  0  0  0  0  0  0  0  0
   53.7920   79.3890   23.2130 H   0  0  0  0  0  0  0  0  0  0  0  0
   58.2089   79.3774   29.4211 H   0  0  0  0  0  0  0  0  0  0  0  0
   57.0316   77.4470   30.5255 H   0  0  0  0  0  0  0  0  0  0  0  0
   57.8610   81.2420   27.3350 H   0  0  0  0  0  0  0  0  0  0  0  0
  1  2  1  0
  2  3  1  0
  3  4  1  0
  4  5  1  0
  5  6  2  0
  6  7  1  0
  7  8  1  0
  8  9  2  0
  9 10  1  0
 10 11  2  0
 11 12  1  0
  7 13  2  0
 13 14  1  0
 14 15  2  0
 15 16  1  0
 16 17  2  0
 17 18  1  0
 18 19  1  0
 18 20  2  0
 15 21  1  0
 21 22  1  0
 22 23  2  0
 20  5  1  0
 12  8  1  0
 22 13  1  0
 20 14  1  0
  1 24  1  0
  1 25  1  0
  2 26  1  0
  2 27  1  0
  3 28  1  0
  3 29  1  0
  6 30  1  0
  9 31  1  0
 10 32  1  0
 11 33  1  0
 12 34  1  0
 16 35  1  0
 17 36  1  0
 21 37  1  0
M  END
>  <meeko>  (1) 
{"is_sidechain": false}

>  <smiles>  (1) 
NCCSc1cc(-c2ccc[nH]2)c2c3c(ccc(F)c13)NC2=O

>  <vina_score>  (1) 
-7.878

>  <job_id>  (1) 
764513e2da157866

$$$$
