
     RDKit          3D

 48 50  0  0  0  0  0  0  0  0999 V2000
   51.1300   83.4890   21.2700 C   0  0  0  0  0  0  0  0  0  0  0  0
   52.1990   82.8450   22.0290 N   0  0  0  0  0  0  0  0  0  0  0  0
   51.8990   82.8570   23.4710 C   0  0  0  0  0  0  0  0  0  0  0  0
   52.8480   81.9510   24.2780 C   0  0  0  0  0  0  0  0  0  0  0  0
   52.8220   80.5590   23.8140 N   0  0  0  0  0  0  0  0  0  0  0  0
   53.0950   79.4570   24.6180 C   0  0  0  0  0  0  0  0  0  0  0  0
   52.8090   78.3150   24.2710 O   0  0  0  0  0  0  0  0  0  0  0  0
   53.7640   79.7760   25.7780 N   0  0  0  0  0  0  0  0  0  0  0  0
   53.9970   78.8530   26.7790 C   0  0  0  0  0  0  0  0  0  0  0  0
   53.2370   77.9520   27.1100 O   0  0  0  0  0  0  0  0  0  0  0  0
   55.2390   79.0650   27.5710 C   0  0  0  0  0  0  0  0  0  0  0  0
   55.5060   78.3570   28.7500 C   0  0  0  0  0  0  0  0  0  0  0  0
   56.6860   78.6010   29.4570 C   0  0  0  0  0  0  0  0  0  0  0  0
   57.6200   79.5390   28.9910 C   0  0  0  0  0  0  0  0  0  0  0  0
   58.8990   79.8000   29.7580 C   0  0  0  0  0  0  0  0  0  0  0  0
   58.8170   80.9580   30.7260 C   0  0  0  0  0  0  0  0  0  0  0  0
   59.2790   82.2310   30.3590 C   0  0  0  0  0  0  0  0  0  0  0  0
   59.1980   83.3000   31.2530 C   0  0  0  0  0  0  0  0  0  0  0  0
   58.6510   83.1100   32.5200 C   0  0  0  0  0  0  0  0  0  0  0  0
   58.1850   81.8510   32.8950 C   0  0  0  0  0  0  0  0  0  0  0  0
   58.2660   80.7800   32.0040 C   0  0  0  0  0  0  0  0  0  0  0  0
   57.3510   80.2320   27.8030 C   0  0  0  0  0  0  0  0  0  0  0  0
   56.1720   79.9930   27.0960 C   0  0  0  0  0  0  0  0  0  0  0  0
   52.2110   80.3320   22.5040 C   0  0  0  0  0  0  0  0  0  0  0  0
   52.4910   81.4860   21.5230 C   0  0  0  0  0  0  0  0  0  0  0  0
   50.4001   83.9287   21.9656 H   0  0  0  0  0  0  0  0  0  0  0  0
   51.5559   84.2809   20.6364 H   0  0  0  0  0  0  0  0  0  0  0  0
   50.6290   82.7423   20.6364 H   0  0  0  0  0  0  0  0  0  0  0  0
   51.9944   83.8879   23.8427 H   0  0  0  0  0  0  0  0  0  0  0  0
   50.8768   82.4727   23.6032 H   0  0  0  0  0  0  0  0  0  0  0  0
   53.8734   82.3370   24.1797 H   0  0  0  0  0  0  0  0  0  0  0  0
   52.5118   81.9617   25.3253 H   0  0  0  0  0  0  0  0  0  0  0  0
   54.4800   80.4620   25.6130 H   0  0  0  0  0  0  0  0  0  0  0  0
   54.7876   77.6100   29.1186 H   0  0  0  0  0  0  0  0  0  0  0  0
   56.8852   78.0519   30.3891 H   0  0  0  0  0  0  0  0  0  0  0  0
   59.1513   78.8927   30.3264 H   0  0  0  0  0  0  0  0  0  0  0  0
   59.6648   80.0643   29.0139 H   0  0  0  0  0  0  0  0  0  0  0  0
   59.7086   82.3879   29.3586 H   0  0  0  0  0  0  0  0  0  0  0  0
   59.5664   84.2932   30.9568 H   0  0  0  0  0  0  0  0  0  0  0  0
   58.5869   83.9528   33.2239 H   0  0  0  0  0  0  0  0  0  0  0  0
   57.7525   81.7013   33.8953 H   0  0  0  0  0  0  0  0  0  0  0  0
   57.8953   79.7893   32.3058 H   0  0  0  0  0  0  0  0  0  0  0  0
   58.0744   80.9696   27.4252 H   0  0  0  0  0  0  0  0  0  0  0  0
   55.9751   80.5370   26.1604 H   0  0  0  0  0  0  0  0  0  0  0  0
   52.6163   79.4011   22.0807 H   0  0  0  0  0  0  0  0  0  0  0  0
   51.1222   80.2666   22.6462 H   0  0  0  0  0  0  0  0  0  0  0  0
   53.5565   81.4481   21.2524 H   0  0  0  0  0  0  0  0  0  0  0  0
   51.8086   81.3296   20.6745 H   0  0  0  0  0  0  0  0  0  0  0  0
  1  2  1  0
  2  3  1  0
  3  4  1  0
  4  5  1  0
  5  6  1  0
  6  7  2  0
  6  8  1  0
  8  9  1  0
  9 10  2  0
  9 11  1  0
 11 12  1  0
 12 13  2  0
 13 14  1  0
 14 15  1  0
 15 16  1  0
 16 17  2  0
 17 18  1  0
 18 19  2  0
 19 20  1  0
 20 21  2  0
 14 22  2  0
 22 23  1  0
  5 24  1  0
 24 25  1  0
 25  2  1  0
 23 11  2  0
 21 16  1  0
  1 26  1  0
  1 27  1  0
  1 28  1  0
  3 29  1  0
  3 30  1  0
  4 31  1  0
  4 32  1  0
  8 33  1  0
 12 34  1  0
 13 35  1  0
 15 36  1  0
 15 37  1  0
 17 38  1  0
 18 39  1  0
 19 40  1  0
 20 41  1  0
 21 42  1  0
 22 43  1  0
 23 44  1  0
 24 45  1  0
 24 46  1  0
 25 47  1  0
 25 48  1  0
M  END
>  <meeko>  (1) 
{"is_sidechain": false}

>  <smiles>  (1) 
CN1CCN(C(=O)NC(=O)c2ccc(Cc3ccccc3)cc2)CC1

>  <vina_score>  (1) 
-9.014

>  <job_id>  (1) 
76c08e90ec1f7d67

$$$$
