
     RDKit          3D

 38 41  0  0  0  0  0  0  0  0999 V2000
   55.3030   81.5330   26.4330 O   0  0  0  0  0  0  0  0  0  0  0  0
   53.8840   81.7860   26.5560 S   0  0  0  0  0  0  0  0  0  0  0  0
   53.3100   82.5030   27.6710 O   0  0  0  0  0  0  0  0  0  0  0  0
   53.3140   82.4820   25.0100 C   0  0  0  0  0  0  0  0  0  0  0  0
   52.2280   81.5360   24.5100 C   0  0  0  0  0  0  0  0  0  0  0  0
   52.6510   80.1340   24.9500 C   0  0  0  0  0  0  0  0  0  0  0  0
   53.0300   80.3080   26.3630 N   0  0  0  0  0  0  0  0  0  0  0  0
   53.5080   79.1990   27.1400 C   0  0  0  0  0  0  0  0  0  0  0  0
   52.9350   77.8950   26.9840 C   0  0  0  0  0  0  0  0  0  0  0  0
   53.3840   76.7490   27.6840 C   0  0  0  0  0  0  0  0  0  0  0  0
   54.4750   76.9930   28.5360 C   0  0  0  0  0  0  0  0  0  0  0  0
   55.1430   76.1490   29.3380 N   0  0  0  0  0  0  0  0  0  0  0  0
   56.0980   76.9170   29.9060 N   0  0  0  0  0  0  0  0  0  0  0  0
   56.1010   78.2300   29.5090 C   0  0  0  0  0  0  0  0  0  0  0  0
   56.9930   79.1400   29.9780 N   0  0  0  0  0  0  0  0  0  0  0  0
   58.2300   79.1060   29.2960 N   0  0  0  0  0  0  0  0  0  0  0  0
   59.1700   80.1220   29.8390 C   0  0  0  0  0  0  0  0  0  0  0  0
   58.6900   81.1150   28.7700 C   0  0  0  0  0  0  0  0  0  0  0  0
   58.1830   79.8740   28.0200 C   0  0  0  0  0  0  0  0  0  0  0  0
   55.0460   78.3150   28.6370 C   0  0  0  0  0  0  0  0  0  0  0  0
   54.6230   79.4590   27.9660 C   0  0  0  0  0  0  0  0  0  0  0  0
   52.9016   83.4890   25.1711 H   0  0  0  0  0  0  0  0  0  0  0  0
   54.1329   82.5824   24.2824 H   0  0  0  0  0  0  0  0  0  0  0  0
   51.2575   81.7994   24.9558 H   0  0  0  0  0  0  0  0  0  0  0  0
   52.1139   81.5969   23.4176 H   0  0  0  0  0  0  0  0  0  0  0  0
   51.8162   79.4243   24.8528 H   0  0  0  0  0  0  0  0  0  0  0  0
   53.4682   79.7247   24.3379 H   0  0  0  0  0  0  0  0  0  0  0  0
   52.0981   77.7774   26.2799 H   0  0  0  0  0  0  0  0  0  0  0  0
   52.9210   75.7576   27.5713 H   0  0  0  0  0  0  0  0  0  0  0  0
   56.7500   76.5000   30.5580 H   0  0  0  0  0  0  0  0  0  0  0  0
   56.6430   80.0520   30.2750 H   0  0  0  0  0  0  0  0  0  0  0  0
   58.9529   80.4312   30.8721 H   0  0  0  0  0  0  0  0  0  0  0  0
   60.2399   79.8932   29.9533 H   0  0  0  0  0  0  0  0  0  0  0  0
   57.9066   81.8132   29.0999 H   0  0  0  0  0  0  0  0  0  0  0  0
   59.3538   81.8607   28.3082 H   0  0  0  0  0  0  0  0  0  0  0  0
   57.1741   79.9835   27.5955 H   0  0  0  0  0  0  0  0  0  0  0  0
   58.7029   79.5071   27.1228 H   0  0  0  0  0  0  0  0  0  0  0  0
   55.0994   80.4453   28.0671 H   0  0  0  0  0  0  0  0  0  0  0  0
  1  2  2  0
  2  3  2  0
  2  4  1  0
  4  5  1  0
  5  6  1  0
  6  7  1  0
  7  8  1  0
  8  9  1  0
  9 10  2  0
 10 11  1  0
 11 12  2  0
 12 13  1  0
 13 14  1  0
 14 15  1  0
 15 16  1  0
 16 17  1  0
 17 18  1  0
 18 19  1  0
 14 20  2  0
 20 21  1  0
  7  2  1  0
 21  8  2  0
 20 11  1  0
 19 16  1  0
  4 22  1  0
  4 23  1  0
  5 24  1  0
  5 25  1  0
  6 26  1  0
  6 27  1  0
  9 28  1  0
 10 29  1  0
 13 30  1  0
 15 31  1  0
 17 32  1  0
 17 33  1  0
 18 34  1  0
 18 35  1  0
 19 36  1  0
 19 37  1  0
 21 38  1  0
M  END
>  <meeko>  (1) 
{"is_sidechain": false}

>  <smiles>  (1) 
O=S1(=O)CCCN1c1ccc2n[nH]c(NN3CCC3)c2c1

>  <vina_score>  (1) 
-7.731

>  <job_id>  (1) 
76d6453fbb6d9f2f

$$$$
