
     RDKit          3D

 55 57  0  0  0  0  0  0  0  0999 V2000
   61.5200   81.6620   35.7830 C   0  0  0  0  0  0  0  0  0  0  0  0
   61.4260   80.9520   34.6420 C   0  0  0  0  0  0  0  0  0  0  0  0
   62.3930   79.8310   34.3760 C   0  0  0  0  0  0  0  0  0  0  0  0
   60.3790   81.2580   33.6280 C   0  0  0  0  0  0  0  0  0  0  0  0
   60.0480   80.3740   32.6010 C   0  0  0  0  0  0  0  0  0  0  0  0
   59.0570   80.7210   31.6820 C   0  0  0  0  0  0  0  0  0  0  0  0
   58.6470   79.9000   30.6090 N   0  0  0  0  0  0  0  0  0  0  0  0
   58.9180   80.0650   29.2610 C   0  0  0  0  0  0  0  0  0  0  0  0
   59.5980   80.9640   28.7700 O   0  0  0  0  0  0  0  0  0  0  0  0
   58.3600   78.9610   28.3670 C   0  0  0  0  0  0  0  0  0  0  0  0
   56.8570   78.8050   28.4020 C   0  0  0  0  0  0  0  0  0  0  0  0
   56.2700   77.8050   29.1850 C   0  0  0  0  0  0  0  0  0  0  0  0
   54.8880   77.6420   29.1830 C   0  0  0  0  0  0  0  0  0  0  0  0
   54.0860   78.4790   28.4030 C   0  0  0  0  0  0  0  0  0  0  0  0
   54.6410   79.4990   27.6170 C   0  0  0  0  0  0  0  0  0  0  0  0
   53.7920   80.3140   26.8480 N   0  0  0  0  0  0  0  0  0  0  0  0
   52.9920   79.5280   25.8160 C   0  0  0  0  0  0  0  0  0  0  0  0
   52.9480   80.1390   24.3500 C   0  0  0  0  0  0  0  0  0  0  0  0
   51.9940   81.3940   24.0280 C   0  0  0  0  0  0  0  0  0  0  0  0
   52.6220   82.7550   23.8240 N   0  0  0  0  0  0  0  0  0  0  0  0
   52.9350   83.1340   25.1670 C   0  0  0  0  0  0  0  0  0  0  0  0
   53.1540   82.8220   26.6090 C   0  0  0  0  0  0  0  0  0  0  0  0
   54.2840   81.7180   26.5370 C   0  0  0  0  0  0  0  0  0  0  0  0
   56.0350   79.6440   27.6270 C   0  0  0  0  0  0  0  0  0  0  0  0
   58.4190   81.9500   31.8190 C   0  0  0  0  0  0  0  0  0  0  0  0
   58.7980   82.7740   32.8600 C   0  0  0  0  0  0  0  0  0  0  0  0
   59.7530   82.4550   33.7560 N   0  0  0  0  0  0  0  0  0  0  0  0
   60.8141   82.4823   35.9801 H   0  0  0  0  0  0  0  0  0  0  0  0
   62.3026   81.4214   36.5176 H   0  0  0  0  0  0  0  0  0  0  0  0
   62.7485   79.4189   35.3319 H   0  0  0  0  0  0  0  0  0  0  0  0
   61.8888   79.0405   33.8008 H   0  0  0  0  0  0  0  0  0  0  0  0
   63.2489   80.2138   33.8008 H   0  0  0  0  0  0  0  0  0  0  0  0
   60.5660   79.4074   32.5159 H   0  0  0  0  0  0  0  0  0  0  0  0
   58.0370   79.1280   30.8540 H   0  0  0  0  0  0  0  0  0  0  0  0
   58.6557   79.1801   27.3304 H   0  0  0  0  0  0  0  0  0  0  0  0
   58.7746   78.0173   28.7511 H   0  0  0  0  0  0  0  0  0  0  0  0
   56.9007   77.1480   29.8019 H   0  0  0  0  0  0  0  0  0  0  0  0
   54.4267   76.8537   29.7959 H   0  0  0  0  0  0  0  0  0  0  0  0
   52.9955   78.3347   28.4056 H   0  0  0  0  0  0  0  0  0  0  0  0
   53.4301   78.5214   25.7472 H   0  0  0  0  0  0  0  0  0  0  0  0
   51.9520   79.5452   26.1738 H   0  0  0  0  0  0  0  0  0  0  0  0
   53.9744   80.4496   24.1049 H   0  0  0  0  0  0  0  0  0  0  0  0
   52.5077   79.3276   23.7518 H   0  0  0  0  0  0  0  0  0  0  0  0
   51.4414   81.1521   23.1082 H   0  0  0  0  0  0  0  0  0  0  0  0
   51.3942   81.5129   24.9424 H   0  0  0  0  0  0  0  0  0  0  0  0
   53.4590   82.6620   23.2520 H   0  0  0  0  0  0  0  0  0  0  0  0
   53.9020   83.6189   24.9673 H   0  0  0  0  0  0  0  0  0  0  0  0
   51.8554   83.1787   25.3728 H   0  0  0  0  0  0  0  0  0  0  0  0
   53.4960   83.7089   27.1626 H   0  0  0  0  0  0  0  0  0  0  0  0
   52.2455   82.4939   27.1353 H   0  0  0  0  0  0  0  0  0  0  0  0
   54.7065   81.7202   25.5214 H   0  0  0  0  0  0  0  0  0  0  0  0
   55.0297   81.9730   27.3044 H   0  0  0  0  0  0  0  0  0  0  0  0
   56.4974   80.4322   27.0146 H   0  0  0  0  0  0  0  0  0  0  0  0
   57.6318   82.2576   31.1150 H   0  0  0  0  0  0  0  0  0  0  0  0
   58.2922   83.7453   32.9639 H   0  0  0  0  0  0  0  0  0  0  0  0
  1  2  2  0
  2  3  1  0
  2  4  1  0
  4  5  2  0
  5  6  1  0
  6  7  1  0
  7  8  1  0
  8  9  2  0
  8 10  1  0
 10 11  1  0
 11 12  2  0
 12 13  1  0
 13 14  2  0
 14 15  1  0
 15 16  1  0
 16 17  1  0
 17 18  1  0
 18 19  1  0
 19 20  1  0
 20 21  1  0
 21 22  1  0
 22 23  1  0
 15 24  2  0
  6 25  2  0
 25 26  1  0
 26 27  2  0
 27  4  1  0
 24 11  1  0
 23 16  1  0
  1 28  1  0
  1 29  1  0
  3 30  1  0
  3 31  1  0
  3 32  1  0
  5 33  1  0
  7 34  1  0
 10 35  1  0
 10 36  1  0
 12 37  1  0
 13 38  1  0
 14 39  1  0
 17 40  1  0
 17 41  1  0
 18 42  1  0
 18 43  1  0
 19 44  1  0
 19 45  1  0
 20 46  1  0
 21 47  1  0
 21 48  1  0
 22 49  1  0
 22 50  1  0
 23 51  1  0
 23 52  1  0
 24 53  1  0
 25 54  1  0
 26 55  1  0
M  END
>  <meeko>  (1) 
{"is_sidechain": false}

>  <smiles>  (1) 
C=C(C)c1cc(NC(=O)Cc2cccc(N3CCCNCCC3)c2)ccn1

>  <vina_score>  (1) 
-7.019

>  <job_id>  (1) 
771a2b90d148b404

$$$$
