
     RDKit          3D

 60 62  0  0  0  0  0  0  0  0999 V2000
   57.6570   87.9050   25.4170 C   0  0  0  0  0  0  0  0  0  0  0  0
   57.1650   86.6390   25.6290 O   0  0  0  0  0  0  0  0  0  0  0  0
   55.7850   86.5940   26.5850 S   0  0  0  0  0  0  0  0  0  0  0  0
   56.0090   87.0790   27.9670 O   0  0  0  0  0  0  0  0  0  0  0  0
   54.6460   87.6390   25.8230 S   0  0  0  0  0  0  0  0  0  0  0  0
   55.1930   84.9390   26.5200 C   0  0  0  0  0  0  0  0  0  0  0  0
   53.9340   84.6970   25.9580 C   0  0  0  0  0  0  0  0  0  0  0  0
   53.4600   83.3840   25.9030 C   0  0  0  0  0  0  0  0  0  0  0  0
   54.2190   82.3420   26.3910 C   0  0  0  0  0  0  0  0  0  0  0  0
   53.6530   80.9480   26.3010 C   0  0  1  0  0  0  0  0  0  0  0  0
   52.6790   80.8800   25.1160 C   0  0  0  0  0  0  0  0  0  0  0  0
   54.6910   79.9710   26.1550 N   0  0  0  0  0  0  0  0  0  0  0  0
   55.2410   79.2190   27.2420 C   0  0  0  0  0  0  0  0  0  0  0  0
   56.4930   79.4570   27.6450 N   0  0  0  0  0  0  0  0  0  0  0  0
   57.0850   78.7810   28.6680 C   0  0  0  0  0  0  0  0  0  0  0  0
   58.4110   79.1000   29.0140 N   0  0  0  0  0  0  0  0  0  0  0  0
   58.8670   80.2190   29.7200 C   0  0  0  0  0  0  0  0  0  0  0  0
   58.5120   80.3640   31.0720 C   0  0  0  0  0  0  0  0  0  0  0  0
   58.9300   81.4360   31.8240 C   0  0  0  0  0  0  0  0  0  0  0  0
   59.7210   82.4280   31.2910 C   0  0  0  0  0  0  0  0  0  0  0  0
   60.2790   83.8110   32.1900 S   0  0  0  0  0  0  0  0  0  0  0  0
   60.0110   83.6640   33.6640 O   0  0  0  0  0  0  0  0  0  0  0  0
   61.7650   83.9440   32.0250 O   0  0  0  0  0  0  0  0  0  0  0  0
   59.3420   85.4980   31.3950 S   0  0  0  0  0  0  0  0  0  0  0  0
   58.2210   86.1490   32.7880 S   0  0  0  0  0  6  0  0  0  0  0  0
   57.0760   88.0610   31.9630 C   0  0  0  0  0  0  0  0  0  0  0  0
   57.3730   85.0700   32.8870 N   0  0  0  0  0  0  0  0  0  0  0  0
   59.4650   86.6810   33.0220 O   0  0  0  0  0  0  0  0  0  0  0  0
   60.0820   82.3090   29.9680 C   0  0  0  0  0  0  0  0  0  0  0  0
   59.6560   81.2240   29.2150 C   0  0  0  0  0  0  0  0  0  0  0  0
   56.3310   77.8470   29.2610 N   0  0  0  0  0  0  0  0  0  0  0  0
   55.0750   77.5660   28.9010 C   0  0  0  0  0  0  0  0  0  0  0  0
   54.4890   78.2540   27.8690 C   0  0  0  0  0  0  0  0  0  0  0  0
   52.6990   77.9010   27.3050 Br  0  0  0  0  0  0  0  0  0  0  0  0
   55.4690   82.5730   26.9500 C   0  0  0  0  0  0  0  0  0  0  0  0
   55.9350   83.8750   27.0030 C   0  0  0  0  0  0  0  0  0  0  0  0
   57.8462   88.3917   26.3851 H   0  0  0  0  0  0  0  0  0  0  0  0
   58.5964   87.8428   24.8481 H   0  0  0  0  0  0  0  0  0  0  0  0
   56.9221   88.4935   24.8481 H   0  0  0  0  0  0  0  0  0  0  0  0
   53.3278   85.5270   25.5661 H   0  0  0  0  0  0  0  0  0  0  0  0
   52.4714   83.1797   25.4660 H   0  0  0  0  0  0  0  0  0  0  0  0
   53.1187   80.7199   27.2351 H   0  0  0  0  0  0  0  0  0  0  0  0
   51.6480   80.8080   25.4925 H   0  0  0  0  0  0  0  0  0  0  0  0
   52.7831   81.7876   24.5033 H   0  0  0  0  0  0  0  0  0  0  0  0
   52.9082   79.9957   24.5033 H   0  0  0  0  0  0  0  0  0  0  0  0
   55.0650   79.8040   25.1920 H   0  0  0  0  0  0  0  0  0  0  0  0
   59.1570   78.4050   28.7000 H   0  0  0  0  0  0  0  0  0  0  0  0
   57.8804   79.5963   31.5428 H   0  0  0  0  0  0  0  0  0  0  0  0
   58.6245   81.5026   32.8786 H   0  0  0  0  0  0  0  0  0  0  0  0
   58.1690   85.8490   34.1320 H   0  0  0  0  0  0  0  0  0  0  0  0
   56.7144   88.6649   32.8083 H   0  0  0  0  0  0  0  0  0  0  0  0
   57.7624   88.6630   31.3494 H   0  0  0  0  0  0  0  0  0  0  0  0
   56.2213   87.7401   31.3494 H   0  0  0  0  0  0  0  0  0  0  0  0
   56.6950   84.4020   32.4480 H   0  0  0  0  0  0  0  0  0  0  0  0
   59.9650   86.9550   33.8430 H   0  0  0  0  0  0  0  0  0  0  0  0
   60.7136   83.0806   29.5036 H   0  0  0  0  0  0  0  0  0  0  0  0
   59.9655   81.1657   28.1611 H   0  0  0  0  0  0  0  0  0  0  0  0
   54.5119   76.7841   29.4315 H   0  0  0  0  0  0  0  0  0  0  0  0
   56.0739   81.7416   27.3410 H   0  0  0  0  0  0  0  0  0  0  0  0
   56.9245   84.0702   27.4420 H   0  0  0  0  0  0  0  0  0  0  0  0
  1  2  1  0
  2  3  1  0
  3  4  2  0
  3  5  2  0
  3  6  1  0
  6  7  1  0
  7  8  2  0
  8  9  1  0
  9 10  1  0
 10 11  1  0
 10 12  1  0
 12 13  1  0
 13 14  2  0
 14 15  1  0
 15 16  1  0
 16 17  1  0
 17 18  1  0
 18 19  2  0
 19 20  1  0
 20 21  1  0
 21 22  2  0
 21 23  2  0
 21 24  1  0
 24 25  1  0
 25 26  1  0
 25 27  2  0
 25 28  1  0
 20 29  2  0
 29 30  1  0
 15 31  2  0
 31 32  1  0
 32 33  2  0
 33 34  1  0
  9 35  2  0
 35 36  1  0
 36  6  2  0
 33 13  1  0
 30 17  2  0
  1 37  1  0
  1 38  1  0
  1 39  1  0
  7 40  1  0
  8 41  1  0
 10 42  1  1
 11 43  1  0
 11 44  1  0
 11 45  1  0
 12 46  1  0
 16 47  1  0
 18 48  1  0
 19 49  1  0
 25 50  1  0
 26 51  1  0
 26 52  1  0
 26 53  1  0
 27 54  1  0
 28 55  1  0
 29 56  1  0
 30 57  1  0
 32 58  1  0
 35 59  1  0
 36 60  1  0
M  END
>  <meeko>  (1) 
{"is_sidechain": false}

>  <smiles>  (1) 
COS(=O)(=S)c1ccc([C@@H](C)Nc2nc(Nc3ccc(S(=O)(=O)S[SH](C)(=N)O)cc3)ncc2Br)cc1

>  <vina_score>  (1) 
-7.699

>  <job_id>  (1) 
77b90d58be046521

$$$$
