
     RDKit          3D

 43 45  0  0  0  0  0  0  0  0999 V2000
   55.5630   83.4420   26.3740 C   0  0  0  0  0  0  0  0  0  0  0  0
   55.5500   82.3250   25.4930 O   0  0  0  0  0  0  0  0  0  0  0  0
   54.9890   81.1620   25.9410 C   0  0  0  0  0  0  0  0  0  0  0  0
   55.5620   80.3120   26.8950 C   0  0  0  0  0  0  0  0  0  0  0  0
   54.9100   79.1430   27.3530 C   0  0  0  0  0  0  0  0  0  0  0  0
   55.5500   78.2660   28.2480 N   0  0  0  0  0  0  0  0  0  0  0  0
   56.9580   78.4730   28.6040 C   0  0  0  0  0  0  0  0  0  0  0  0
   57.0900   79.1070   29.9980 C   0  0  0  0  0  0  0  0  0  0  0  0
   58.2850   80.0030   30.1260 C   0  0  0  0  0  0  0  0  0  0  0  0
   59.2210   80.2630   29.1450 C   0  0  0  0  0  0  0  0  0  0  0  0
   60.1620   81.1110   29.6600 N   0  0  0  0  0  0  0  0  0  0  0  0
   59.8560   81.4290   30.9630 C   0  0  0  0  0  0  0  0  0  0  0  0
   60.5260   82.2550   31.8720 C   0  0  0  0  0  0  0  0  0  0  0  0
   59.9770   82.3950   33.1490 C   0  0  0  0  0  0  0  0  0  0  0  0
   58.8040   81.7320   33.5000 C   0  0  0  0  0  0  0  0  0  0  0  0
   58.1470   80.9080   32.5800 C   0  0  0  0  0  0  0  0  0  0  0  0
   58.6790   80.7500   31.2840 C   0  0  0  0  0  0  0  0  0  0  0  0
   53.6590   78.8080   26.7730 C   0  0  0  0  0  0  0  0  0  0  0  0
   52.9350   77.5740   27.1920 C   0  0  0  0  0  0  0  0  0  0  0  0
   52.6850   77.2290   28.3330 O   0  0  0  0  0  0  0  0  0  0  0  0
   52.5600   76.8150   26.1450 O   0  0  0  0  0  0  0  0  0  0  0  0
   53.0700   79.6490   25.8180 C   0  0  0  0  0  0  0  0  0  0  0  0
   53.7430   80.8070   25.4220 C   0  0  0  0  0  0  0  0  0  0  0  0
   53.1080   81.6440   24.4260 N   0  0  0  0  0  0  0  0  0  0  0  0
   53.3100   81.3490   23.2390 O   0  0  0  0  0  0  0  0  0  0  0  0
   52.4600   82.6180   24.8290 O   0  0  0  0  0  0  0  0  0  0  0  0
   55.5589   83.0877   27.4154 H   0  0  0  0  0  0  0  0  0  0  0  0
   56.4682   84.0405   26.1939 H   0  0  0  0  0  0  0  0  0  0  0  0
   54.6720   84.0614   26.1939 H   0  0  0  0  0  0  0  0  0  0  0  0
   56.5529   80.5618   27.3022 H   0  0  0  0  0  0  0  0  0  0  0  0
   54.9700   78.1080   29.0840 H   0  0  0  0  0  0  0  0  0  0  0  0
   57.4757   77.5024   28.6005 H   0  0  0  0  0  0  0  0  0  0  0  0
   57.4078   79.1544   27.8668 H   0  0  0  0  0  0  0  0  0  0  0  0
   56.1853   79.6991   30.2004 H   0  0  0  0  0  0  0  0  0  0  0  0
   57.2160   78.2872   30.7205 H   0  0  0  0  0  0  0  0  0  0  0  0
   59.2114   79.8570   28.1227 H   0  0  0  0  0  0  0  0  0  0  0  0
   60.9710   81.4550   29.1610 H   0  0  0  0  0  0  0  0  0  0  0  0
   61.4530   82.7762   31.5909 H   0  0  0  0  0  0  0  0  0  0  0  0
   60.4784   83.0379   33.8874 H   0  0  0  0  0  0  0  0  0  0  0  0
   58.3896   81.8575   34.5112 H   0  0  0  0  0  0  0  0  0  0  0  0
   57.2215   80.3868   32.8659 H   0  0  0  0  0  0  0  0  0  0  0  0
   53.2200   77.0240   25.4510 H   0  0  0  0  0  0  0  0  0  0  0  0
   52.0896   79.3997   25.3859 H   0  0  0  0  0  0  0  0  0  0  0  0
  1  2  1  0
  2  3  1  0
  3  4  2  0
  4  5  1  0
  5  6  1  0
  6  7  1  0
  7  8  1  0
  8  9  1  0
  9 10  2  0
 10 11  1  0
 11 12  1  0
 12 13  2  0
 13 14  1  0
 14 15  2  0
 15 16  1  0
 16 17  2  0
  5 18  2  0
 18 19  1  0
 19 20  2  0
 19 21  1  0
 18 22  1  0
 22 23  2  0
 23 24  1  0
 24 25  2  0
 24 26  1  0
 23  3  1  0
 17  9  1  0
 17 12  1  0
  1 27  1  0
  1 28  1  0
  1 29  1  0
  4 30  1  0
  6 31  1  0
  7 32  1  0
  7 33  1  0
  8 34  1  0
  8 35  1  0
 10 36  1  0
 11 37  1  0
 13 38  1  0
 14 39  1  0
 15 40  1  0
 16 41  1  0
 21 42  1  0
 22 43  1  0
M  CHG  2  24   1  26  -1
M  END
>  <meeko>  (1) 
{"is_sidechain": false}

>  <smiles>  (1) 
COc1cc(NCCc2c[nH]c3ccccc23)c(C(=O)O)cc1[N+](=O)[O-]

>  <vina_score>  (1) 
-7.792

>  <job_id>  (1) 
7887c7a2cd723dd0

$$$$
