
     RDKit          3D

 41 43  0  0  0  0  0  0  0  0999 V2000
   52.7390   88.4380   24.0810 O   0  0  0  0  0  0  0  0  0  0  0  0
   53.1710   88.7740   25.3950 C   0  0  0  0  0  0  0  0  0  0  0  0
   54.3120   87.8900   25.8130 C   0  0  0  0  0  0  0  0  0  0  0  0
   54.0870   86.5510   25.8710 N   0  0  0  0  0  0  0  0  0  0  0  0
   55.1140   85.7650   26.2670 C   0  0  0  0  0  0  0  0  0  0  0  0
   54.8830   84.3090   26.3390 C   0  0  0  0  0  0  0  0  0  0  0  0
   53.5980   83.7700   26.4830 C   0  0  0  0  0  0  0  0  0  0  0  0
   53.3820   82.3810   26.5510 C   0  0  0  0  0  0  0  0  0  0  0  0
   54.4290   81.4480   26.4870 C   0  0  0  0  0  0  0  0  0  0  0  0
   54.2000   80.0750   26.5370 N   0  0  0  0  0  0  0  0  0  0  0  0
   53.3930   79.3890   25.5220 C   0  0  0  0  0  0  0  0  0  0  0  0
   53.3110   77.8800   25.7410 C   0  0  0  0  0  0  0  0  0  0  0  0
   52.6450   77.4680   27.0570 C   0  0  0  0  0  0  0  0  0  0  0  0
   53.6070   77.2620   28.1290 N   0  0  0  0  0  0  0  0  0  0  0  0
   54.4870   78.4020   28.4210 C   0  0  0  0  0  0  0  0  0  0  0  0
   55.1350   79.1870   27.2490 C   0  0  0  0  0  0  0  0  0  0  0  0
   55.7090   82.0000   26.3270 C   0  0  0  0  0  0  0  0  0  0  0  0
   55.9340   83.3870   26.2610 C   0  0  0  0  0  0  0  0  0  0  0  0
   56.3400   86.2290   26.5910 N   0  0  0  0  0  0  0  0  0  0  0  0
   56.5180   87.5650   26.5160 C   0  0  0  0  0  0  0  0  0  0  0  0
   55.5340   88.4410   26.1300 C   0  0  0  0  0  0  0  0  0  0  0  0
   55.7720   89.7560   26.0500 F   0  0  0  0  0  0  0  0  0  0  0  0
   52.9940   89.1780   23.5060 H   0  0  0  0  0  0  0  0  0  0  0  0
   53.5007   89.8233   25.4110 H   0  0  0  0  0  0  0  0  0  0  0  0
   52.3336   88.6304   26.0937 H   0  0  0  0  0  0  0  0  0  0  0  0
   52.7355   84.4500   26.5445 H   0  0  0  0  0  0  0  0  0  0  0  0
   52.3515   82.0116   26.6586 H   0  0  0  0  0  0  0  0  0  0  0  0
   52.3739   79.8022   25.5471 H   0  0  0  0  0  0  0  0  0  0  0  0
   53.8803   79.5532   24.5496 H   0  0  0  0  0  0  0  0  0  0  0  0
   52.7351   77.4427   24.9121 H   0  0  0  0  0  0  0  0  0  0  0  0
   54.3467   77.5119   25.7841 H   0  0  0  0  0  0  0  0  0  0  0  0
   51.9436   78.2593   27.3600 H   0  0  0  0  0  0  0  0  0  0  0  0
   52.1278   76.5126   26.8845 H   0  0  0  0  0  0  0  0  0  0  0  0
   53.1340   76.9790   28.9860 H   0  0  0  0  0  0  0  0  0  0  0  0
   53.8933   79.1244   29.0004 H   0  0  0  0  0  0  0  0  0  0  0  0
   55.3465   77.9413   28.9299 H   0  0  0  0  0  0  0  0  0  0  0  0
   55.9545   79.7994   27.6534 H   0  0  0  0  0  0  0  0  0  0  0  0
   55.4853   78.4414   26.5201 H   0  0  0  0  0  0  0  0  0  0  0  0
   56.5710   81.3210   26.2501 H   0  0  0  0  0  0  0  0  0  0  0  0
   56.9633   83.7573   26.1450 H   0  0  0  0  0  0  0  0  0  0  0  0
   57.5049   87.9739   26.7784 H   0  0  0  0  0  0  0  0  0  0  0  0
  1  2  1  0
  2  3  1  0
  3  4  2  0
  4  5  1  0
  5  6  1  0
  6  7  1  0
  7  8  2  0
  8  9  1  0
  9 10  1  0
 10 11  1  0
 11 12  1  0
 12 13  1  0
 13 14  1  0
 14 15  1  0
 15 16  1  0
  9 17  2  0
 17 18  1  0
  5 19  2  0
 19 20  1  0
 20 21  2  0
 21 22  1  0
 21  3  1  0
 18  6  2  0
 16 10  1  0
  1 23  1  0
  2 24  1  0
  2 25  1  0
  7 26  1  0
  8 27  1  0
 11 28  1  0
 11 29  1  0
 12 30  1  0
 12 31  1  0
 13 32  1  0
 13 33  1  0
 14 34  1  0
 15 35  1  0
 15 36  1  0
 16 37  1  0
 16 38  1  0
 17 39  1  0
 18 40  1  0
 20 41  1  0
M  END
>  <meeko>  (1) 
{"is_sidechain": false}

>  <smiles>  (1) 
OCc1nc(-c2ccc(N3CCCNCC3)cc2)ncc1F

>  <vina_score>  (1) 
-5.259

>  <job_id>  (1) 
789d915bcab20282

$$$$
