
     RDKit          3D

 63 64  0  0  0  0  0  0  0  0999 V2000
   52.5590   81.7320   21.5740 C   0  0  0  0  0  0  0  0  0  0  0  0
   52.9350   81.7840   22.9450 O   0  0  0  0  0  0  0  0  0  0  0  0
   52.1070   80.9730   23.7750 C   0  0  1  0  0  0  0  0  0  0  0  0
   51.2650   80.2320   22.8910 O   0  0  0  0  0  0  0  0  0  0  0  0
   52.8860   79.9730   24.6710 C   0  0  1  0  0  0  0  0  0  0  0  0
   53.3210   78.7290   23.8950 C   0  0  0  0  0  0  0  0  0  0  0  0
   54.0760   80.5560   25.2290 O   0  0  0  0  0  0  0  0  0  0  0  0
   54.1710   80.4280   26.6520 C   0  0  1  0  0  0  0  0  0  0  0  0
   53.3260   81.5620   27.2300 C   0  0  0  0  0  0  0  0  0  0  0  0
   53.5830   79.2160   27.1410 O   0  0  0  0  0  0  0  0  0  0  0  0
   54.4460   78.4480   27.8810 C   0  0  0  0  0  0  0  0  0  0  0  0
   55.6810   78.9360   28.0770 N   0  0  0  0  0  0  0  0  0  0  0  0
   56.5870   78.1500   28.6700 C   0  0  0  0  0  0  0  0  0  0  0  0
   57.8650   78.6920   28.7430 N   0  0  0  0  0  0  0  0  0  0  0  0
   58.4530   79.6760   29.5440 C   0  0  0  0  0  0  0  0  0  0  0  0
   58.3940   79.6810   30.9430 C   0  0  0  0  0  0  0  0  0  0  0  0
   58.9870   80.7020   31.6930 C   0  0  0  0  0  0  0  0  0  0  0  0
   59.6560   81.7350   31.0390 C   0  0  0  0  0  0  0  0  0  0  0  0
   60.4060   83.0460   31.9770 S   0  0  0  0  0  0  0  0  0  0  0  0
   60.8820   84.0140   31.0060 O   0  0  0  0  0  0  0  0  0  0  0  0
   59.4660   83.4480   33.0090 O   0  0  0  0  0  0  0  0  0  0  0  0
   61.8300   82.3170   32.7840 C   0  0  2  0  0  0  0  0  0  0  0  0
   62.0530   82.8880   34.1860 C   0  0  0  0  0  0  0  0  0  0  0  0
   63.1000   82.4880   31.9280 C   0  0  1  0  0  0  0  0  0  0  0  0
   64.4090   82.1060   32.6070 C   0  0  0  0  0  0  0  0  0  0  0  0
   62.9990   81.7990   30.6810 O   0  0  0  0  0  0  0  0  0  0  0  0
   59.7060   81.7760   29.6470 C   0  0  0  0  0  0  0  0  0  0  0  0
   59.1070   80.7490   28.9110 C   0  0  0  0  0  0  0  0  0  0  0  0
   56.2910   76.9190   29.1040 N   0  0  0  0  0  0  0  0  0  0  0  0
   55.0390   76.4640   28.8890 C   0  0  0  0  0  0  0  0  0  0  0  0
   54.0610   77.1890   28.2540 C   0  0  0  0  0  0  0  0  0  0  0  0
   52.7080   76.6520   27.9910 C   0  0  0  0  0  0  0  0  0  0  0  0
   51.7260   77.3530   28.6280 F   0  0  0  0  0  0  0  0  0  0  0  0
   52.5570   75.3630   28.3970 F   0  0  0  0  0  0  0  0  0  0  0  0
   52.3710   76.6810   26.6720 F   0  0  0  0  0  0  0  0  0  0  0  0
   51.4720   81.5817   21.4974 H   0  0  0  0  0  0  0  0  0  0  0  0
   52.8341   82.6767   21.0823 H   0  0  0  0  0  0  0  0  0  0  0  0
   53.0801   80.8974   21.0823 H   0  0  0  0  0  0  0  0  0  0  0  0
   51.5607   81.6314   24.4664 H   0  0  0  0  0  0  0  0  0  0  0  0
   50.4610   80.7790   22.8600 H   0  0  0  0  0  0  0  0  0  0  0  0
   52.1836   79.7011   25.4727 H   0  0  0  0  0  0  0  0  0  0  0  0
   53.5990   77.9340   24.6026 H   0  0  0  0  0  0  0  0  0  0  0  0
   52.4906   78.3826   23.2621 H   0  0  0  0  0  0  0  0  0  0  0  0
   54.1863   78.9756   23.2621 H   0  0  0  0  0  0  0  0  0  0  0  0
   55.2339   80.4425   26.9351 H   0  0  0  0  0  0  0  0  0  0  0  0
   53.3576   81.5195   28.3287 H   0  0  0  0  0  0  0  0  0  0  0  0
   53.7262   82.5281   26.8887 H   0  0  0  0  0  0  0  0  0  0  0  0
   52.2858   81.4548   26.8887 H   0  0  0  0  0  0  0  0  0  0  0  0
   58.4970   78.1110   28.2030 H   0  0  0  0  0  0  0  0  0  0  0  0
   57.8705   78.8652   31.4630 H   0  0  0  0  0  0  0  0  0  0  0  0
   58.9257   80.6897   32.7912 H   0  0  0  0  0  0  0  0  0  0  0  0
   61.6189   81.2429   32.8920 H   0  0  0  0  0  0  0  0  0  0  0  0
   61.7608   82.1397   34.9374 H   0  0  0  0  0  0  0  0  0  0  0  0
   63.1159   83.1407   34.3142 H   0  0  0  0  0  0  0  0  0  0  0  0
   61.4427   83.7941   34.3142 H   0  0  0  0  0  0  0  0  0  0  0  0
   63.1457   83.5746   31.7631 H   0  0  0  0  0  0  0  0  0  0  0  0
   64.2803   82.1436   33.6988 H   0  0  0  0  0  0  0  0  0  0  0  0
   64.6944   81.0871   32.3063 H   0  0  0  0  0  0  0  0  0  0  0  0
   65.1976   82.8115   32.3063 H   0  0  0  0  0  0  0  0  0  0  0  0
   62.5930   80.9220   30.8460 H   0  0  0  0  0  0  0  0  0  0  0  0
   60.2111   82.6070   29.1329 H   0  0  0  0  0  0  0  0  0  0  0  0
   59.1480   80.7807   27.8122 H   0  0  0  0  0  0  0  0  0  0  0  0
   54.7872   75.4534   29.2431 H   0  0  0  0  0  0  0  0  0  0  0  0
  1  2  1  0
  2  3  1  0
  3  4  1  0
  3  5  1  0
  5  6  1  0
  5  7  1  0
  7  8  1  0
  8  9  1  0
  8 10  1  0
 10 11  1  0
 11 12  2  0
 12 13  1  0
 13 14  1  0
 14 15  1  0
 15 16  1  0
 16 17  2  0
 17 18  1  0
 18 19  1  0
 19 20  2  0
 19 21  2  0
 19 22  1  0
 22 23  1  0
 22 24  1  0
 24 25  1  0
 24 26  1  0
 18 27  2  0
 27 28  1  0
 13 29  2  0
 29 30  1  0
 30 31  2  0
 31 32  1  0
 32 33  1  0
 32 34  1  0
 32 35  1  0
 31 11  1  0
 28 15  2  0
  1 36  1  0
  1 37  1  0
  1 38  1  0
  3 39  1  1
  4 40  1  0
  5 41  1  1
  6 42  1  0
  6 43  1  0
  6 44  1  0
  8 45  1  1
  9 46  1  0
  9 47  1  0
  9 48  1  0
 14 49  1  0
 16 50  1  0
 17 51  1  0
 22 52  1  1
 23 53  1  0
 23 54  1  0
 23 55  1  0
 24 56  1  6
 25 57  1  0
 25 58  1  0
 25 59  1  0
 26 60  1  0
 27 61  1  0
 28 62  1  0
 30 63  1  0
M  END
>  <meeko>  (1) 
{"is_sidechain": false}

>  <smiles>  (1) 
CO[C@@H](O)[C@@H](C)O[C@@H](C)Oc1nc(Nc2ccc(S(=O)(=O)[C@H](C)[C@@H](C)O)cc2)ncc1C(F)(F)F

>  <vina_score>  (1) 
-8.348

>  <job_id>  (1) 
78f6c7ee69c46e40

$$$$
