
     RDKit          3D

 42 43  0  0  0  0  0  0  0  0999 V2000
   52.7740   80.1010   26.5200 C   0  0  0  0  0  0  0  0  0  0  0  0
   53.5740   78.7810   26.5290 C   0  0  0  0  0  0  0  0  0  0  0  0
   52.7290   77.6800   27.2080 C   0  0  0  0  0  0  0  0  0  0  0  0
   53.7740   78.3580   25.0560 C   0  0  0  0  0  0  0  0  0  0  0  0
   54.8880   78.9750   27.3040 C   0  0  0  0  0  0  0  0  0  0  0  0
   55.8770   79.8880   26.9060 C   0  0  0  0  0  0  0  0  0  0  0  0
   57.0630   80.0410   27.6320 C   0  0  0  0  0  0  0  0  0  0  0  0
   57.3020   79.2850   28.7840 C   0  0  0  0  0  0  0  0  0  0  0  0
   58.5830   79.4520   29.5680 C   0  0  0  0  0  0  0  0  0  0  0  0
   58.6930   80.7760   30.2950 C   0  0  0  0  0  0  0  0  0  0  0  0
   58.1850   80.9180   31.5970 C   0  0  0  0  0  0  0  0  0  0  0  0
   58.2900   82.1350   32.2720 C   0  0  0  0  0  0  0  0  0  0  0  0
   58.8960   83.2210   31.6390 C   0  0  0  0  0  0  0  0  0  0  0  0
   59.0400   84.7710   32.4840 S   0  0  0  0  0  0  0  0  0  0  0  0
   57.4350   85.0780   32.8950 N   0  0  0  0  0  0  0  0  0  0  0  0
   59.7240   84.5530   33.7390 O   0  0  0  0  0  0  0  0  0  0  0  0
   59.4560   85.7760   31.5360 O   0  0  0  0  0  0  0  0  0  0  0  0
   59.4140   83.0960   30.3470 C   0  0  0  0  0  0  0  0  0  0  0  0
   59.3080   81.8770   29.6780 C   0  0  0  0  0  0  0  0  0  0  0  0
   56.3270   78.3740   29.1950 C   0  0  0  0  0  0  0  0  0  0  0  0
   55.1410   78.2230   28.4680 C   0  0  0  0  0  0  0  0  0  0  0  0
   52.5808   80.4197   27.5549 H   0  0  0  0  0  0  0  0  0  0  0  0
   53.3536   80.8775   25.9993 H   0  0  0  0  0  0  0  0  0  0  0  0
   51.8174   79.9465   25.9993 H   0  0  0  0  0  0  0  0  0  0  0  0
   52.8060   77.7803   28.3007 H   0  0  0  0  0  0  0  0  0  0  0  0
   51.6772   77.7848   26.9033 H   0  0  0  0  0  0  0  0  0  0  0  0
   53.1022   76.6911   26.9033 H   0  0  0  0  0  0  0  0  0  0  0  0
   54.2439   77.3641   25.0205 H   0  0  0  0  0  0  0  0  0  0  0  0
   52.7982   78.3205   24.5496 H   0  0  0  0  0  0  0  0  0  0  0  0
   54.4222   79.0883   24.5496 H   0  0  0  0  0  0  0  0  0  0  0  0
   55.7161   80.4963   26.0038 H   0  0  0  0  0  0  0  0  0  0  0  0
   57.8176   80.7656   27.2922 H   0  0  0  0  0  0  0  0  0  0  0  0
   58.6412   78.6434   30.3115 H   0  0  0  0  0  0  0  0  0  0  0  0
   59.4075   79.4193   28.8406 H   0  0  0  0  0  0  0  0  0  0  0  0
   57.7000   80.0621   32.0890 H   0  0  0  0  0  0  0  0  0  0  0  0
   57.8982   82.2373   33.2948 H   0  0  0  0  0  0  0  0  0  0  0  0
   56.8460   84.8810   32.0840 H   0  0  0  0  0  0  0  0  0  0  0  0
   57.2870   86.0200   33.2540 H   0  0  0  0  0  0  0  0  0  0  0  0
   59.9022   83.9536   29.8609 H   0  0  0  0  0  0  0  0  0  0  0  0
   59.7094   81.7773   28.6587 H   0  0  0  0  0  0  0  0  0  0  0  0
   56.4928   77.7693   30.0988 H   0  0  0  0  0  0  0  0  0  0  0  0
   54.3880   77.4996   28.8138 H   0  0  0  0  0  0  0  0  0  0  0  0
  1  2  1  0
  2  3  1  0
  2  4  1  0
  2  5  1  0
  5  6  1  0
  6  7  2  0
  7  8  1  0
  8  9  1  0
  9 10  1  0
 10 11  1  0
 11 12  2  0
 12 13  1  0
 13 14  1  0
 14 15  1  0
 14 16  2  0
 14 17  2  0
 13 18  2  0
 18 19  1  0
  8 20  2  0
 20 21  1  0
 21  5  2  0
 19 10  2  0
  1 22  1  0
  1 23  1  0
  1 24  1  0
  3 25  1  0
  3 26  1  0
  3 27  1  0
  4 28  1  0
  4 29  1  0
  4 30  1  0
  6 31  1  0
  7 32  1  0
  9 33  1  0
  9 34  1  0
 11 35  1  0
 12 36  1  0
 15 37  1  0
 15 38  1  0
 18 39  1  0
 19 40  1  0
 20 41  1  0
 21 42  1  0
M  END
>  <meeko>  (1) 
{"is_sidechain": false}

>  <smiles>  (1) 
CC(C)(C)c1ccc(Cc2ccc(S(N)(=O)=O)cc2)cc1

>  <vina_score>  (1) 
-7.854

>  <job_id>  (1) 
7922c3d58c1b2262

$$$$
