
     RDKit          3D

 54 57  0  0  0  0  0  0  0  0999 V2000
   66.4290   84.3170   31.0990 C   0  0  0  0  0  0  0  0  0  0  0  0
   65.5320   83.3630   30.4520 N   0  0  0  0  0  0  0  0  0  0  0  0
   64.1790   83.9280   30.2720 C   0  0  0  0  0  0  0  0  0  0  0  0
   63.3280   84.0370   31.5620 C   0  0  0  0  0  0  0  0  0  0  0  0
   63.2400   82.7640   32.3030 N   0  0  0  0  0  0  0  0  0  0  0  0
   62.5300   82.8920   33.5910 C   0  0  0  0  0  0  0  0  0  0  0  0
   61.0000   83.1610   33.4990 C   0  0  2  0  0  0  0  0  0  0  0  0
   60.4350   83.6820   34.7700 N   0  0  0  0  0  0  0  0  0  0  0  0
   60.2600   81.8530   33.0980 C   0  0  0  0  0  0  0  0  0  0  0  0
   60.7720   81.3630   31.8180 N   0  0  0  0  0  0  0  0  0  0  0  0
   59.9230   80.9860   30.8300 C   0  0  0  0  0  0  0  0  0  0  0  0
   60.1340   81.3570   29.5910 N   0  0  0  0  0  0  0  0  0  0  0  0
   59.1350   80.8740   28.7700 C   0  0  0  0  0  0  0  0  0  0  0  0
   58.1390   80.1280   29.3780 C   0  0  0  0  0  0  0  0  0  0  0  0
   56.9720   79.5030   28.8260 C   0  0  0  0  0  0  0  0  0  0  0  0
   56.2890   78.3570   29.4520 C   0  0  0  0  0  0  0  0  0  0  0  0
   55.1910   77.7830   28.9260 C   0  0  0  0  0  0  0  0  0  0  0  0
   54.6340   78.2970   27.6840 C   0  0  0  0  0  0  0  0  0  0  0  0
   53.5410   77.7640   27.1160 C   0  0  0  0  0  0  0  0  0  0  0  0
   53.0410   78.2700   25.9420 N   0  0  0  0  0  0  0  0  0  0  0  0
   53.5960   79.3320   25.2660 C   0  0  0  0  0  0  0  0  0  0  0  0
   52.8970   79.8590   23.8410 S   0  0  0  0  0  0  0  0  0  0  0  0
   54.8100   79.9350   25.8820 C   0  0  0  0  0  0  0  0  0  0  0  0
   55.2970   79.4360   27.0320 C   0  0  0  0  0  0  0  0  0  0  0  0
   56.4860   80.0080   27.6650 C   0  0  0  0  0  0  0  0  0  0  0  0
   58.5040   80.0400   31.0630 S   0  0  0  0  0  0  0  0  0  0  0  0
   64.5940   82.2100   32.5200 C   0  0  0  0  0  0  0  0  0  0  0  0
   65.4210   82.1070   31.2180 C   0  0  0  0  0  0  0  0  0  0  0  0
   66.3395   84.2218   32.1912 H   0  0  0  0  0  0  0  0  0  0  0  0
   67.4659   84.1086   30.7965 H   0  0  0  0  0  0  0  0  0  0  0  0
   66.1572   85.3391   30.7965 H   0  0  0  0  0  0  0  0  0  0  0  0
   64.2863   84.9380   29.8498 H   0  0  0  0  0  0  0  0  0  0  0  0
   63.6433   83.2285   29.6134 H   0  0  0  0  0  0  0  0  0  0  0  0
   63.7816   84.7942   32.2184 H   0  0  0  0  0  0  0  0  0  0  0  0
   62.3070   84.3140   31.2606 H   0  0  0  0  0  0  0  0  0  0  0  0
   62.6747   81.9559   34.1503 H   0  0  0  0  0  0  0  0  0  0  0  0
   62.9594   83.7781   34.0812 H   0  0  0  0  0  0  0  0  0  0  0  0
   60.8517   83.9352   32.7318 H   0  0  0  0  0  0  0  0  0  0  0  0
   60.9610   84.5310   35.0050 H   0  0  0  0  0  0  0  0  0  0  0  0
   59.4880   84.0200   34.6000 H   0  0  0  0  0  0  0  0  0  0  0  0
   60.4237   81.0893   33.8726 H   0  0  0  0  0  0  0  0  0  0  0  0
   59.1841   82.0608   33.0018 H   0  0  0  0  0  0  0  0  0  0  0  0
   61.5370   80.7000   31.9210 H   0  0  0  0  0  0  0  0  0  0  0  0
   59.1302   81.0715   27.6879 H   0  0  0  0  0  0  0  0  0  0  0  0
   56.6946   77.9526   30.3911 H   0  0  0  0  0  0  0  0  0  0  0  0
   54.7171   76.9294   29.4327 H   0  0  0  0  0  0  0  0  0  0  0  0
   53.0397   76.9112   27.5971 H   0  0  0  0  0  0  0  0  0  0  0  0
   52.2120   77.8510   25.5320 H   0  0  0  0  0  0  0  0  0  0  0  0
   55.3080   80.7876   25.3971 H   0  0  0  0  0  0  0  0  0  0  0  0
   56.9937   80.8613   27.1915 H   0  0  0  0  0  0  0  0  0  0  0  0
   65.1304   82.8619   33.2252 H   0  0  0  0  0  0  0  0  0  0  0  0
   64.4727   81.1902   32.9139 H   0  0  0  0  0  0  0  0  0  0  0  0
   66.4364   81.7776   31.4833 H   0  0  0  0  0  0  0  0  0  0  0  0
   64.8883   81.3960   30.5694 H   0  0  0  0  0  0  0  0  0  0  0  0
  1  2  1  0
  2  3  1  0
  3  4  1  0
  4  5  1  0
  5  6  1  0
  6  7  1  0
  7  8  1  0
  7  9  1  0
  9 10  1  0
 10 11  1  0
 11 12  2  0
 12 13  1  0
 13 14  2  0
 14 15  1  0
 15 16  1  0
 16 17  2  0
 17 18  1  0
 18 19  2  0
 19 20  1  0
 20 21  1  0
 21 22  2  0
 21 23  1  0
 23 24  2  0
 24 25  1  0
 14 26  1  0
  5 27  1  0
 27 28  1  0
 28  2  1  0
 26 11  1  0
 25 15  2  0
 24 18  1  0
  1 29  1  0
  1 30  1  0
  1 31  1  0
  3 32  1  0
  3 33  1  0
  4 34  1  0
  4 35  1  0
  6 36  1  0
  6 37  1  0
  7 38  1  6
  8 39  1  0
  8 40  1  0
  9 41  1  0
  9 42  1  0
 10 43  1  0
 13 44  1  0
 16 45  1  0
 17 46  1  0
 19 47  1  0
 20 48  1  0
 23 49  1  0
 25 50  1  0
 27 51  1  0
 27 52  1  0
 28 53  1  0
 28 54  1  0
M  END
>  <meeko>  (1) 
{"is_sidechain": false}

>  <smiles>  (1) 
CN1CCN(C[C@H](N)CNc2ncc(-c3ccc4c[nH]c(=S)cc4c3)s2)CC1

>  <vina_score>  (1) 
-7.625

>  <job_id>  (1) 
79433777e42d28d9

$$$$
