
     RDKit          3D

 40 42  0  0  0  0  0  0  0  0999 V2000
   56.2550   79.2840   28.1550 O   0  0  0  0  0  0  0  0  0  0  0  0
   56.3300   78.6290   29.1850 C   0  0  0  0  0  0  0  0  0  0  0  0
   55.4810   77.5920   29.5400 N   0  0  0  0  0  0  0  0  0  0  0  0
   54.4460   77.0250   28.7670 C   0  0  0  0  0  0  0  0  0  0  0  0
   53.5500   77.7670   27.9950 C   0  0  0  0  0  0  0  0  0  0  0  0
   52.5560   77.1260   27.2480 C   0  0  0  0  0  0  0  0  0  0  0  0
   52.4510   75.7390   27.2630 C   0  0  0  0  0  0  0  0  0  0  0  0
   53.3420   74.9880   28.0240 C   0  0  0  0  0  0  0  0  0  0  0  0
   54.3360   75.6280   28.7700 C   0  0  0  0  0  0  0  0  0  0  0  0
   57.2850   78.8280   30.1720 N   0  0  0  0  0  0  0  0  0  0  0  0
   58.2680   79.8400   30.2030 C   0  0  0  0  0  0  0  0  0  0  0  0
   58.5960   80.3910   31.4400 C   0  0  0  0  0  0  0  0  0  0  0  0
   59.5570   81.4000   31.5170 C   0  0  0  0  0  0  0  0  0  0  0  0
   60.1830   81.8600   30.3580 C   0  0  0  0  0  0  0  0  0  0  0  0
   61.1490   82.8820   30.4580 N   0  0  0  0  0  0  0  0  0  0  0  0
   60.6440   84.1310   31.0750 C   0  0  0  0  0  0  0  0  0  0  0  0
   61.0000   84.1860   32.5670 C   0  0  0  0  0  0  0  0  0  0  0  0
   62.4210   84.1690   32.8100 O   0  0  0  0  0  0  0  0  0  0  0  0
   63.1630   83.5290   31.7610 C   0  0  0  0  0  0  0  0  0  0  0  0
   62.3930   82.3800   31.0900 C   0  0  0  0  0  0  0  0  0  0  0  0
   59.8740   81.3340   29.1570 N   0  0  0  0  0  0  0  0  0  0  0  0
   58.9360   80.3500   29.0980 C   0  0  0  0  0  0  0  0  0  0  0  0
   55.5240   77.2870   30.5000 H   0  0  0  0  0  0  0  0  0  0  0  0
   53.6263   78.8641   27.9740 H   0  0  0  0  0  0  0  0  0  0  0  0
   51.8541   77.7216   26.6459 H   0  0  0  0  0  0  0  0  0  0  0  0
   51.6672   75.2380   26.6760 H   0  0  0  0  0  0  0  0  0  0  0  0
   53.2640   73.8909   28.0384 H   0  0  0  0  0  0  0  0  0  0  0  0
   55.0397   75.0283   29.3660 H   0  0  0  0  0  0  0  0  0  0  0  0
   57.3600   78.1130   30.8780 H   0  0  0  0  0  0  0  0  0  0  0  0
   58.0989   80.0318   32.3532 H   0  0  0  0  0  0  0  0  0  0  0  0
   59.8214   81.8333   32.4929 H   0  0  0  0  0  0  0  0  0  0  0  0
   61.0966   84.9938   30.5644 H   0  0  0  0  0  0  0  0  0  0  0  0
   59.5490   84.1562   30.9732 H   0  0  0  0  0  0  0  0  0  0  0  0
   60.5830   85.1106   32.9926 H   0  0  0  0  0  0  0  0  0  0  0  0
   60.5756   83.2876   33.0390 H   0  0  0  0  0  0  0  0  0  0  0  0
   63.4063   84.2808   30.9958 H   0  0  0  0  0  0  0  0  0  0  0  0
   64.0661   83.0960   32.2160 H   0  0  0  0  0  0  0  0  0  0  0  0
   63.0294   81.9202   30.3195 H   0  0  0  0  0  0  0  0  0  0  0  0
   62.1258   81.6379   31.8567 H   0  0  0  0  0  0  0  0  0  0  0  0
   58.6911   79.9315   28.1107 H   0  0  0  0  0  0  0  0  0  0  0  0
  1  2  2  0
  2  3  1  0
  3  4  1  0
  4  5  2  0
  5  6  1  0
  6  7  2  0
  7  8  1  0
  8  9  2  0
  2 10  1  0
 10 11  1  0
 11 12  2  0
 12 13  1  0
 13 14  2  0
 14 15  1  0
 15 16  1  0
 16 17  1  0
 17 18  1  0
 18 19  1  0
 19 20  1  0
 14 21  1  0
 21 22  2  0
  9  4  1  0
 22 11  1  0
 20 15  1  0
  3 23  1  0
  5 24  1  0
  6 25  1  0
  7 26  1  0
  8 27  1  0
  9 28  1  0
 10 29  1  0
 12 30  1  0
 13 31  1  0
 16 32  1  0
 16 33  1  0
 17 34  1  0
 17 35  1  0
 19 36  1  0
 19 37  1  0
 20 38  1  0
 20 39  1  0
 22 40  1  0
M  END
>  <meeko>  (1) 
{"is_sidechain": false}

>  <smiles>  (1) 
O=C(Nc1ccccc1)Nc1ccc(N2CCOCC2)nc1

>  <vina_score>  (1) 
-7.603

>  <job_id>  (1) 
7957fdff2d0de8c3

$$$$
