
     RDKit          3D

 44 45  0  0  0  0  0  0  0  0999 V2000
   52.5590   81.7320   21.5240 C   0  0  0  0  0  0  0  0  0  0  0  0
   52.3120   80.7490   22.6710 C   0  0  0  0  0  0  0  0  0  0  0  0
   50.9270   80.9820   23.2710 C   0  0  0  0  0  0  0  0  0  0  0  0
   53.3520   80.9570   23.6790 N   0  0  0  0  0  0  0  0  0  0  0  0
   53.4460   80.1750   24.8300 C   0  0  0  0  0  0  0  0  0  0  0  0
   53.6440   78.7910   24.8240 C   0  0  0  0  0  0  0  0  0  0  0  0
   53.7970   78.0700   26.0150 C   0  0  0  0  0  0  0  0  0  0  0  0
   53.7910   78.7250   27.2490 C   0  0  0  0  0  0  0  0  0  0  0  0
   53.9370   77.9480   28.5340 C   0  0  0  0  0  0  0  0  0  0  0  0
   55.3470   77.3740   28.6870 C   0  0  0  0  0  0  0  0  0  0  0  0
   56.3620   78.4560   28.9650 C   0  0  0  0  0  0  0  0  0  0  0  0
   56.9310   79.1820   27.9070 C   0  0  0  0  0  0  0  0  0  0  0  0
   57.8560   80.1950   28.1620 C   0  0  0  0  0  0  0  0  0  0  0  0
   58.2060   80.4930   29.4810 C   0  0  0  0  0  0  0  0  0  0  0  0
   59.4020   81.7530   29.8050 S   0  0  0  0  0  0  0  0  0  0  0  0
   60.3130   81.7390   28.3950 N   0  0  0  0  0  0  0  0  0  0  0  0
   60.2910   81.3120   30.8540 O   0  0  0  0  0  0  0  0  0  0  0  0
   58.7440   83.0390   29.8370 O   0  0  0  0  0  0  0  0  0  0  0  0
   57.6540   79.7740   30.5440 C   0  0  0  0  0  0  0  0  0  0  0  0
   56.7290   78.7620   30.2830 C   0  0  0  0  0  0  0  0  0  0  0  0
   53.6310   80.1120   27.2690 C   0  0  0  0  0  0  0  0  0  0  0  0
   53.4760   80.8220   26.0740 C   0  0  0  0  0  0  0  0  0  0  0  0
   52.8076   82.7212   21.9360 H   0  0  0  0  0  0  0  0  0  0  0  0
   53.3945   81.3717   20.9059 H   0  0  0  0  0  0  0  0  0  0  0  0
   51.6524   81.8095   20.9059 H   0  0  0  0  0  0  0  0  0  0  0  0
   52.3504   79.7129   22.3034 H   0  0  0  0  0  0  0  0  0  0  0  0
   50.9963   80.9703   24.3688 H   0  0  0  0  0  0  0  0  0  0  0  0
   50.5426   81.9574   22.9382 H   0  0  0  0  0  0  0  0  0  0  0  0
   50.2446   80.1860   22.9382 H   0  0  0  0  0  0  0  0  0  0  0  0
   53.5320   81.9400   23.8680 H   0  0  0  0  0  0  0  0  0  0  0  0
   53.6804   78.2568   23.8631 H   0  0  0  0  0  0  0  0  0  0  0  0
   53.9231   76.9779   25.9784 H   0  0  0  0  0  0  0  0  0  0  0  0
   53.7301   78.6177   29.3818 H   0  0  0  0  0  0  0  0  0  0  0  0
   53.2245   77.1102   28.5128 H   0  0  0  0  0  0  0  0  0  0  0  0
   55.3518   76.6575   29.5216 H   0  0  0  0  0  0  0  0  0  0  0  0
   55.6211   76.8805   27.7429 H   0  0  0  0  0  0  0  0  0  0  0  0
   56.6458   78.9508   26.8701 H   0  0  0  0  0  0  0  0  0  0  0  0
   58.3067   80.7554   27.3296 H   0  0  0  0  0  0  0  0  0  0  0  0
   60.2470   82.6460   27.9320 H   0  0  0  0  0  0  0  0  0  0  0  0
   61.2690   81.4500   28.6040 H   0  0  0  0  0  0  0  0  0  0  0  0
   57.9463   80.0038   31.5793 H   0  0  0  0  0  0  0  0  0  0  0  0
   56.2845   78.2002   31.1178 H   0  0  0  0  0  0  0  0  0  0  0  0
   53.6268   80.6488   28.2291 H   0  0  0  0  0  0  0  0  0  0  0  0
   53.3750   81.9167   26.1108 H   0  0  0  0  0  0  0  0  0  0  0  0
  1  2  1  0
  2  3  1  0
  2  4  1  0
  4  5  1  0
  5  6  1  0
  6  7  2  0
  7  8  1  0
  8  9  1  0
  9 10  1  0
 10 11  1  0
 11 12  1  0
 12 13  2  0
 13 14  1  0
 14 15  1  0
 15 16  1  0
 15 17  2  0
 15 18  2  0
 14 19  2  0
 19 20  1  0
  8 21  2  0
 21 22  1  0
 22  5  2  0
 20 11  2  0
  1 23  1  0
  1 24  1  0
  1 25  1  0
  2 26  1  0
  3 27  1  0
  3 28  1  0
  3 29  1  0
  4 30  1  0
  6 31  1  0
  7 32  1  0
  9 33  1  0
  9 34  1  0
 10 35  1  0
 10 36  1  0
 12 37  1  0
 13 38  1  0
 16 39  1  0
 16 40  1  0
 19 41  1  0
 20 42  1  0
 21 43  1  0
 22 44  1  0
M  END
>  <meeko>  (1) 
{"is_sidechain": false}

>  <smiles>  (1) 
CC(C)Nc1ccc(CCc2ccc(S(N)(=O)=O)cc2)cc1

>  <vina_score>  (1) 
-7.758

>  <job_id>  (1) 
7997824b2b518e57

$$$$
