
     RDKit          3D

 69 74  0  0  0  0  0  0  0  0999 V2000
   51.8100   83.0140   22.2980 C   0  0  0  0  0  0  0  0  0  0  0  0
   52.3510   81.8980   23.1130 C   0  0  0  0  0  0  0  0  0  0  0  0
   52.3070   80.6200   22.7920 N   0  0  0  0  0  0  0  0  0  0  0  0
   52.8820   79.9450   23.8490 C   0  0  0  0  0  0  0  0  0  0  0  0
   53.0840   78.5740   24.0590 C   0  0  0  0  0  0  0  0  0  0  0  0
   52.7070   77.6700   23.1430 F   0  0  0  0  0  0  0  0  0  0  0  0
   53.6850   78.1330   25.2430 C   0  0  0  0  0  0  0  0  0  0  0  0
   54.1010   79.0290   26.2460 C   0  0  0  0  0  0  0  0  0  0  0  0
   54.7230   78.5150   27.4870 C   0  0  0  0  0  0  0  0  0  0  0  0
   56.0310   78.8460   27.6550 N   0  0  0  0  0  0  0  0  0  0  0  0
   56.6610   78.4200   28.7670 C   0  0  0  0  0  0  0  0  0  0  0  0
   58.0080   78.7640   28.8530 N   0  0  0  0  0  0  0  0  0  0  0  0
   58.5490   79.8550   29.5510 C   0  0  0  0  0  0  0  0  0  0  0  0
   58.8160   81.0180   28.8320 C   0  0  0  0  0  0  0  0  0  0  0  0
   59.3550   82.1260   29.4830 C   0  0  0  0  0  0  0  0  0  0  0  0
   59.6260   82.0590   30.8490 C   0  0  0  0  0  0  0  0  0  0  0  0
   59.3290   80.8670   31.5010 C   0  0  0  0  0  0  0  0  0  0  0  0
   58.8030   79.7860   30.8730 N   0  0  0  0  0  0  0  0  0  0  0  0
   59.6330   80.7130   32.9640 C   0  0  0  0  0  0  0  0  0  0  0  0
   59.5740   82.0600   33.6690 C   0  0  0  0  0  0  0  0  0  0  0  0
   60.4280   83.0440   33.0060 N   0  0  0  0  0  0  0  0  0  0  0  0
   61.0900   83.9820   33.7980 C   0  0  0  0  0  0  0  0  0  0  0  0
   60.6020   85.0840   34.0510 O   0  0  0  0  0  0  0  0  0  0  0  0
   62.4520   83.5760   34.3390 C   0  0  0  0  0  0  0  0  0  0  0  0
   63.5340   83.6630   33.2560 C   0  0  0  0  0  0  0  0  0  0  0  0
   64.0550   82.3350   32.8690 N   0  0  0  0  0  0  0  0  0  0  0  0
   63.4350   81.2590   33.6470 C   0  0  0  0  0  0  0  0  0  0  0  0
   63.8110   82.1060   31.4410 C   0  0  0  0  0  0  0  0  0  0  0  0
   60.2070   83.2420   31.5730 C   0  0  0  0  0  0  0  0  0  0  0  0
   56.0710   77.6550   29.6980 N   0  0  0  0  0  0  0  0  0  0  0  0
   54.7740   77.3510   29.5160 C   0  0  0  0  0  0  0  0  0  0  0  0
   54.0490   77.7580   28.4250 C   0  0  0  0  0  0  0  0  0  0  0  0
   52.7560   77.4290   28.3100 F   0  0  0  0  0  0  0  0  0  0  0  0
   53.8920   80.4110   26.0390 C   0  0  0  0  0  0  0  0  0  0  0  0
   53.2960   80.8340   24.8390 C   0  0  0  0  0  0  0  0  0  0  0  0
   52.9730   82.0630   24.3240 N   0  0  0  0  0  0  0  0  0  0  0  0
   53.1820   83.3540   25.0200 C   0  0  0  0  0  0  0  0  0  0  0  0
   53.0630   83.4960   26.5200 C   0  0  0  0  0  0  0  0  0  0  0  0
   54.4020   83.6290   25.8660 C   0  0  0  0  0  0  0  0  0  0  0  0
   51.4279   83.8022   22.9633 H   0  0  0  0  0  0  0  0  0  0  0  0
   52.6087   83.4253   21.6633 H   0  0  0  0  0  0  0  0  0  0  0  0
   50.9924   82.6417   21.6633 H   0  0  0  0  0  0  0  0  0  0  0  0
   53.8370   77.0542   25.3947 H   0  0  0  0  0  0  0  0  0  0  0  0
   58.3970   78.6750   27.9250 H   0  0  0  0  0  0  0  0  0  0  0  0
   58.6021   81.0615   27.7539 H   0  0  0  0  0  0  0  0  0  0  0  0
   59.5655   83.0486   28.9221 H   0  0  0  0  0  0  0  0  0  0  0  0
   58.8944   80.0354   33.4171 H   0  0  0  0  0  0  0  0  0  0  0  0
   60.6466   80.3000   33.0736 H   0  0  0  0  0  0  0  0  0  0  0  0
   58.5358   82.4234   33.6613 H   0  0  0  0  0  0  0  0  0  0  0  0
   59.9323   81.9281   34.7006 H   0  0  0  0  0  0  0  0  0  0  0  0
   62.7216   84.2461   35.1686 H   0  0  0  0  0  0  0  0  0  0  0  0
   62.3904   82.5330   34.6832 H   0  0  0  0  0  0  0  0  0  0  0  0
   63.1045   84.1465   32.3662 H   0  0  0  0  0  0  0  0  0  0  0  0
   64.3725   84.2444   33.6669 H   0  0  0  0  0  0  0  0  0  0  0  0
   63.5548   81.4668   34.7205 H   0  0  0  0  0  0  0  0  0  0  0  0
   62.3642   81.1996   33.4022 H   0  0  0  0  0  0  0  0  0  0  0  0
   63.9206   80.3028   33.4022 H   0  0  0  0  0  0  0  0  0  0  0  0
   63.0137   81.3578   31.3206 H   0  0  0  0  0  0  0  0  0  0  0  0
   63.5035   83.0492   30.9657 H   0  0  0  0  0  0  0  0  0  0  0  0
   64.7328   81.7394   30.9657 H   0  0  0  0  0  0  0  0  0  0  0  0
   59.5179   84.0903   31.4482 H   0  0  0  0  0  0  0  0  0  0  0  0
   61.1990   83.4156   31.1306 H   0  0  0  0  0  0  0  0  0  0  0  0
   54.2681   76.7445   30.2816 H   0  0  0  0  0  0  0  0  0  0  0  0
   54.1907   81.1429   26.8039 H   0  0  0  0  0  0  0  0  0  0  0  0
   52.7093   83.8325   24.1496 H   0  0  0  0  0  0  0  0  0  0  0  0
   52.5718   84.3810   26.9507 H   0  0  0  0  0  0  0  0  0  0  0  0
   52.6524   82.8733   27.3285 H   0  0  0  0  0  0  0  0  0  0  0  0
   54.8939   84.6117   25.8170 H   0  0  0  0  0  0  0  0  0  0  0  0
   55.3806   83.1440   25.9967 H   0  0  0  0  0  0  0  0  0  0  0  0
  1  2  1  0
  2  3  2  0
  3  4  1  0
  4  5  2  0
  5  6  1  0
  5  7  1  0
  7  8  2  0
  8  9  1  0
  9 10  2  0
 10 11  1  0
 11 12  1  0
 12 13  1  0
 13 14  1  0
 14 15  2  0
 15 16  1  0
 16 17  2  0
 17 18  1  0
 17 19  1  0
 19 20  1  0
 20 21  1  0
 21 22  1  0
 22 23  2  0
 22 24  1  0
 24 25  1  0
 25 26  1  0
 26 27  1  0
 26 28  1  0
 21 29  1  0
 11 30  2  0
 30 31  1  0
 31 32  2  0
 32 33  1  0
  8 34  1  0
 34 35  2  0
 35 36  1  0
 36 37  1  0
 37 38  1  0
 38 39  1  0
 36  2  1  0
 39 37  1  0
 35  4  1  0
 32  9  1  0
 18 13  2  0
 29 16  1  0
  1 40  1  0
  1 41  1  0
  1 42  1  0
  7 43  1  0
 12 44  1  0
 14 45  1  0
 15 46  1  0
 19 47  1  0
 19 48  1  0
 20 49  1  0
 20 50  1  0
 24 51  1  0
 24 52  1  0
 25 53  1  0
 25 54  1  0
 27 55  1  0
 27 56  1  0
 27 57  1  0
 28 58  1  0
 28 59  1  0
 28 60  1  0
 29 61  1  0
 29 62  1  0
 31 63  1  0
 34 64  1  0
 37 65  1  0
 38 66  1  0
 38 67  1  0
 39 68  1  0
 39 69  1  0
M  END
>  <meeko>  (1) 
{"is_sidechain": false}

>  <smiles>  (1) 
Cc1nc2c(F)cc(-c3nc(Nc4ccc5c(n4)CCN(C(=O)CCN(C)C)C5)ncc3F)cc2n1C1CC1

>  <vina_score>  (1) 
-9.139

>  <job_id>  (1) 
799a5e6906e7e2d4

$$$$
