
     RDKit          3D

 53 55  0  0  0  0  0  0  0  0999 V2000
   52.3260   81.3100   22.4330 C   0  0  0  0  0  0  0  0  0  0  0  0
   53.3730   80.9820   23.3680 N   0  0  0  0  0  0  0  0  0  0  0  0
   53.0590   80.5670   24.6470 C   0  0  0  0  0  0  0  0  0  0  0  0
   51.9110   80.3910   25.0380 O   0  0  0  0  0  0  0  0  0  0  0  0
   54.2040   80.3730   25.5790 C   0  0  0  0  0  0  0  0  0  0  0  0
   54.3060   79.2460   26.4080 C   0  0  0  0  0  0  0  0  0  0  0  0
   55.3960   79.1070   27.2750 C   0  0  0  0  0  0  0  0  0  0  0  0
   56.3910   80.0930   27.3180 C   0  0  0  0  0  0  0  0  0  0  0  0
   57.5630   79.9870   28.2330 C   0  0  0  0  0  0  0  0  0  0  0  0
   58.3860   79.1050   28.0180 O   0  0  0  0  0  0  0  0  0  0  0  0
   57.5710   80.8980   29.2740 N   0  0  0  0  0  0  0  0  0  0  0  0
   58.5650   81.0570   30.2640 C   0  0  0  0  0  0  0  0  0  0  0  0
   59.6110   81.9740   30.1790 C   0  0  0  0  0  0  0  0  0  0  0  0
   60.5560   82.0730   31.2080 C   0  0  0  0  0  0  0  0  0  0  0  0
   60.4740   81.2570   32.3440 C   0  0  0  0  0  0  0  0  0  0  0  0
   61.5140   81.3900   33.4430 C   0  0  0  0  0  0  0  0  0  0  0  0
   61.9260   80.0290   34.0200 C   0  0  0  0  0  0  0  0  0  0  0  0
   62.9850   80.1980   35.1050 C   0  0  0  0  0  0  0  0  0  0  0  0
   62.5760   81.1500   36.1370 N   0  0  0  0  0  0  0  0  0  0  0  0
   63.1160   80.9710   37.4100 C   0  0  0  0  0  0  0  0  0  0  0  0
   62.8200   82.0300   38.4410 C   0  0  0  0  0  0  0  0  0  0  0  0
   63.7980   79.9900   37.7140 O   0  0  0  0  0  0  0  0  0  0  0  0
   62.0960   82.4480   35.6580 C   0  0  0  0  0  0  0  0  0  0  0  0
   61.0300   82.3060   34.5760 C   0  0  0  0  0  0  0  0  0  0  0  0
   59.4190   80.3420   32.4270 C   0  0  0  0  0  0  0  0  0  0  0  0
   58.4760   80.2440   31.3980 C   0  0  0  0  0  0  0  0  0  0  0  0
   56.2710   81.2340   26.5140 C   0  0  0  0  0  0  0  0  0  0  0  0
   55.1840   81.3720   25.6480 C   0  0  0  0  0  0  0  0  0  0  0  0
   51.4178   81.5945   22.9845 H   0  0  0  0  0  0  0  0  0  0  0  0
   52.6491   82.1500   21.8005 H   0  0  0  0  0  0  0  0  0  0  0  0
   52.1121   80.4358   21.8005 H   0  0  0  0  0  0  0  0  0  0  0  0
   54.2920   81.3640   23.1930 H   0  0  0  0  0  0  0  0  0  0  0  0
   53.5274   78.4696   26.3766 H   0  0  0  0  0  0  0  0  0  0  0  0
   55.4718   78.2221   27.9239 H   0  0  0  0  0  0  0  0  0  0  0  0
   56.7490   81.4740   29.3890 H   0  0  0  0  0  0  0  0  0  0  0  0
   59.6951   82.6253   29.2966 H   0  0  0  0  0  0  0  0  0  0  0  0
   61.3750   82.8024   31.1230 H   0  0  0  0  0  0  0  0  0  0  0  0
   62.3971   81.8461   32.9717 H   0  0  0  0  0  0  0  0  0  0  0  0
   61.0417   79.5382   34.4527 H   0  0  0  0  0  0  0  0  0  0  0  0
   62.3467   79.4155   33.2096 H   0  0  0  0  0  0  0  0  0  0  0  0
   63.1667   79.2212   35.5770 H   0  0  0  0  0  0  0  0  0  0  0  0
   63.8956   80.5897   34.6281 H   0  0  0  0  0  0  0  0  0  0  0  0
   62.9390   81.6044   39.4483 H   0  0  0  0  0  0  0  0  0  0  0  0
   63.5175   82.8710   38.3135 H   0  0  0  0  0  0  0  0  0  0  0  0
   61.7875   82.3874   38.3135 H   0  0  0  0  0  0  0  0  0  0  0  0
   61.6678   83.0021   36.5063 H   0  0  0  0  0  0  0  0  0  0  0  0
   62.9515   82.9832   35.2203 H   0  0  0  0  0  0  0  0  0  0  0  0
   60.1203   81.8771   35.0215 H   0  0  0  0  0  0  0  0  0  0  0  0
   60.8216   83.3014   34.1568 H   0  0  0  0  0  0  0  0  0  0  0  0
   59.3299   79.6928   33.3105 H   0  0  0  0  0  0  0  0  0  0  0  0
   57.6540   79.5179   31.4823 H   0  0  0  0  0  0  0  0  0  0  0  0
   57.0352   82.0236   26.5649 H   0  0  0  0  0  0  0  0  0  0  0  0
   55.0969   82.2690   25.0173 H   0  0  0  0  0  0  0  0  0  0  0  0
  1  2  1  0
  2  3  1  0
  3  4  2  0
  3  5  1  0
  5  6  1  0
  6  7  2  0
  7  8  1  0
  8  9  1  0
  9 10  2  0
  9 11  1  0
 11 12  1  0
 12 13  1  0
 13 14  2  0
 14 15  1  0
 15 16  1  0
 16 17  1  0
 17 18  1  0
 18 19  1  0
 19 20  1  0
 20 21  1  0
 20 22  2  0
 19 23  1  0
 23 24  1  0
 15 25  2  0
 25 26  1  0
  8 27  2  0
 27 28  1  0
 28  5  2  0
 26 12  2  0
 24 16  1  0
  1 29  1  0
  1 30  1  0
  1 31  1  0
  2 32  1  0
  6 33  1  0
  7 34  1  0
 11 35  1  0
 13 36  1  0
 14 37  1  0
 16 38  1  0
 17 39  1  0
 17 40  1  0
 18 41  1  0
 18 42  1  0
 21 43  1  0
 21 44  1  0
 21 45  1  0
 23 46  1  0
 23 47  1  0
 24 48  1  0
 24 49  1  0
 25 50  1  0
 26 51  1  0
 27 52  1  0
 28 53  1  0
M  END
>  <meeko>  (1) 
{"is_sidechain": false}

>  <smiles>  (1) 
CNC(=O)c1ccc(C(=O)Nc2ccc(C3CCN(C(C)=O)CC3)cc2)cc1

>  <vina_score>  (1) 
-7.802

>  <job_id>  (1) 
79c73e477d877ea3

$$$$
