
     RDKit          3D

 40 41  0  0  0  0  0  0  0  0999 V2000
   62.8770   82.1120   31.2350 C   0  0  0  0  0  0  0  0  0  0  0  0
   62.0080   83.2100   30.6500 C   0  0  0  0  0  0  0  0  0  0  0  0
   60.5710   82.7670   30.4300 C   0  0  0  0  0  0  0  0  0  0  0  0
   59.6290   83.5500   30.4880 O   0  0  0  0  0  0  0  0  0  0  0  0
   60.4990   81.4070   30.1680 N   0  0  0  0  0  0  0  0  0  0  0  0
   59.3450   80.6390   29.9130 C   0  0  0  0  0  0  0  0  0  0  0  0
   58.9100   80.5600   28.5860 C   0  0  0  0  0  0  0  0  0  0  0  0
   57.7720   79.8180   28.2470 C   0  0  0  0  0  0  0  0  0  0  0  0
   57.0390   79.1320   29.2260 C   0  0  0  0  0  0  0  0  0  0  0  0
   55.8450   78.3470   28.8720 C   0  0  0  0  0  0  0  0  0  0  0  0
   55.5750   77.1180   29.4800 C   0  0  0  0  0  0  0  0  0  0  0  0
   54.4350   76.3710   29.1380 C   0  0  0  0  0  0  0  0  0  0  0  0
   53.5130   76.8040   28.1710 C   0  0  0  0  0  0  0  0  0  0  0  0
   52.3690   76.0650   27.8460 N   0  0  0  0  0  0  0  0  0  0  0  0
   51.0800   76.4780   28.3950 C   0  0  0  0  0  0  0  0  0  0  0  0
   52.3140   75.3730   26.5590 C   0  0  0  0  0  0  0  0  0  0  0  0
   53.7910   78.0500   27.5850 C   0  0  0  0  0  0  0  0  0  0  0  0
   54.9290   78.8030   27.9200 C   0  0  0  0  0  0  0  0  0  0  0  0
   57.4840   79.2190   30.5530 C   0  0  0  0  0  0  0  0  0  0  0  0
   58.6220   79.9630   30.8940 C   0  0  0  0  0  0  0  0  0  0  0  0
   62.8389   82.1602   32.3333 H   0  0  0  0  0  0  0  0  0  0  0  0
   62.5068   81.1326   30.8979 H   0  0  0  0  0  0  0  0  0  0  0  0
   63.9153   82.2473   30.8979 H   0  0  0  0  0  0  0  0  0  0  0  0
   62.0104   84.0661   31.3407 H   0  0  0  0  0  0  0  0  0  0  0  0
   62.4269   83.4775   29.6687 H   0  0  0  0  0  0  0  0  0  0  0  0
   61.3760   80.9030   30.1610 H   0  0  0  0  0  0  0  0  0  0  0  0
   59.4689   81.0874   27.7989 H   0  0  0  0  0  0  0  0  0  0  0  0
   57.4481   79.7725   27.1968 H   0  0  0  0  0  0  0  0  0  0  0  0
   56.2677   76.7282   30.2404 H   0  0  0  0  0  0  0  0  0  0  0  0
   54.2582   75.4117   29.6464 H   0  0  0  0  0  0  0  0  0  0  0  0
   51.1276   76.4627   29.4939 H   0  0  0  0  0  0  0  0  0  0  0  0
   50.8449   77.4965   28.0523 H   0  0  0  0  0  0  0  0  0  0  0  0
   50.2968   75.7858   28.0523 H   0  0  0  0  0  0  0  0  0  0  0  0
   52.2279   74.2896   26.7286 H   0  0  0  0  0  0  0  0  0  0  0  0
   51.4410   75.7256   25.9901 H   0  0  0  0  0  0  0  0  0  0  0  0
   53.2317   75.5833   25.9901 H   0  0  0  0  0  0  0  0  0  0  0  0
   53.0920   78.4510   26.8362 H   0  0  0  0  0  0  0  0  0  0  0  0
   55.1022   79.7693   27.4238 H   0  0  0  0  0  0  0  0  0  0  0  0
   56.9284   78.6924   31.3429 H   0  0  0  0  0  0  0  0  0  0  0  0
   58.9468   80.0136   31.9437 H   0  0  0  0  0  0  0  0  0  0  0  0
  1  2  1  0
  2  3  1  0
  3  4  2  0
  3  5  1  0
  5  6  1  0
  6  7  1  0
  7  8  2  0
  8  9  1  0
  9 10  1  0
 10 11  1  0
 11 12  2  0
 12 13  1  0
 13 14  1  0
 14 15  1  0
 14 16  1  0
 13 17  2  0
 17 18  1  0
  9 19  2  0
 19 20  1  0
 20  6  2  0
 18 10  2  0
  1 21  1  0
  1 22  1  0
  1 23  1  0
  2 24  1  0
  2 25  1  0
  5 26  1  0
  7 27  1  0
  8 28  1  0
 11 29  1  0
 12 30  1  0
 15 31  1  0
 15 32  1  0
 15 33  1  0
 16 34  1  0
 16 35  1  0
 16 36  1  0
 17 37  1  0
 18 38  1  0
 19 39  1  0
 20 40  1  0
M  END
>  <meeko>  (1) 
{"is_sidechain": false}

>  <smiles>  (1) 
CCC(=O)Nc1ccc(-c2ccc(N(C)C)cc2)cc1

>  <vina_score>  (1) 
-7.325

>  <job_id>  (1) 
79f55c14062d269d

$$$$
