
     RDKit          3D

 41 43  0  0  0  0  0  0  0  0999 V2000
   57.6110   79.4600   29.4290 C   0  0  0  0  0  0  0  0  0  0  0  0
   56.6880   78.7330   30.0830 C   0  0  0  0  0  0  0  0  0  0  0  0
   55.6500   77.9290   29.4330 C   0  0  0  0  0  0  0  0  0  0  0  0
   55.5270   76.6370   29.7750 N   0  0  0  0  0  0  0  0  0  0  0  0
   54.5610   75.9560   29.1400 C   0  0  0  0  0  0  0  0  0  0  0  0
   53.7310   76.5210   28.2020 C   0  0  0  0  0  0  0  0  0  0  0  0
   53.9290   77.8600   27.9150 C   0  0  0  0  0  0  0  0  0  0  0  0
   53.0790   78.4810   26.9610 N   0  0  0  0  0  0  0  0  0  0  0  0
   53.0120   77.7300   25.6960 C   0  0  0  0  0  0  0  0  0  0  0  0
   53.8980   78.4080   24.6500 C   0  0  0  0  0  0  0  0  0  0  0  0
   53.2940   79.6630   24.0010 C   0  0  0  0  0  0  0  0  0  0  0  0
   52.1220   80.1950   24.6970 N   0  0  0  0  0  0  0  0  0  0  0  0
   52.4920   80.7660   26.0000 C   0  0  0  0  0  0  0  0  0  0  0  0
   53.4540   79.9110   26.8520 C   0  0  0  0  0  0  0  0  0  0  0  0
   54.8910   78.5710   28.5300 N   0  0  0  0  0  0  0  0  0  0  0  0
   58.6540   80.2540   30.0920 C   0  0  0  0  0  0  0  0  0  0  0  0
   59.4490   81.1070   29.3150 C   0  0  0  0  0  0  0  0  0  0  0  0
   60.4360   81.8990   29.9100 C   0  0  0  0  0  0  0  0  0  0  0  0
   60.6280   81.8550   31.2890 C   0  0  0  0  0  0  0  0  0  0  0  0
   59.8320   81.0240   32.0740 C   0  0  0  0  0  0  0  0  0  0  0  0
   58.8460   80.2320   31.4800 C   0  0  0  0  0  0  0  0  0  0  0  0
   57.5833   79.4602   28.3293 H   0  0  0  0  0  0  0  0  0  0  0  0
   56.7141   78.7426   31.1826 H   0  0  0  0  0  0  0  0  0  0  0  0
   54.4267   74.8915   29.3826 H   0  0  0  0  0  0  0  0  0  0  0  0
   52.9452   75.9357   27.7022 H   0  0  0  0  0  0  0  0  0  0  0  0
   53.3634   76.7009   25.8620 H   0  0  0  0  0  0  0  0  0  0  0  0
   51.9724   77.7104   25.3371 H   0  0  0  0  0  0  0  0  0  0  0  0
   54.8412   78.6963   25.1371 H   0  0  0  0  0  0  0  0  0  0  0  0
   54.0304   77.6765   23.8392 H   0  0  0  0  0  0  0  0  0  0  0  0
   54.0667   80.4456   23.9793 H   0  0  0  0  0  0  0  0  0  0  0  0
   52.9571   79.3675   22.9964 H   0  0  0  0  0  0  0  0  0  0  0  0
   51.4680   79.4270   24.8600 H   0  0  0  0  0  0  0  0  0  0  0  0
   52.9730   81.7386   25.8193 H   0  0  0  0  0  0  0  0  0  0  0  0
   51.5574   80.8332   26.5762 H   0  0  0  0  0  0  0  0  0  0  0  0
   54.4555   79.9693   26.4008 H   0  0  0  0  0  0  0  0  0  0  0  0
   53.4147   80.3215   27.8718 H   0  0  0  0  0  0  0  0  0  0  0  0
   59.2953   81.1541   28.2268 H   0  0  0  0  0  0  0  0  0  0  0  0
   61.0612   82.5572   29.2887 H   0  0  0  0  0  0  0  0  0  0  0  0
   61.4066   82.4752   31.7571 H   0  0  0  0  0  0  0  0  0  0  0  0
   59.9799   80.9912   33.1635 H   0  0  0  0  0  0  0  0  0  0  0  0
   58.2149   79.5855   32.1074 H   0  0  0  0  0  0  0  0  0  0  0  0
  1  2  2  3
  2  3  1  0
  3  4  2  0
  4  5  1  0
  5  6  2  0
  6  7  1  0
  7  8  1  0
  8  9  1  0
  9 10  1  0
 10 11  1  0
 11 12  1  0
 12 13  1  0
 13 14  1  0
  7 15  2  0
  1 16  1  0
 16 17  2  0
 17 18  1  0
 18 19  2  0
 19 20  1  0
 20 21  2  0
 15  3  1  0
 21 16  1  0
 14  8  1  0
  1 22  1  0
  2 23  1  0
  5 24  1  0
  6 25  1  0
  9 26  1  0
  9 27  1  0
 10 28  1  0
 10 29  1  0
 11 30  1  0
 11 31  1  0
 12 32  1  0
 13 33  1  0
 13 34  1  0
 14 35  1  0
 14 36  1  0
 17 37  1  0
 18 38  1  0
 19 39  1  0
 20 40  1  0
 21 41  1  0
M  END
>  <meeko>  (1) 
{"is_sidechain": false}

>  <smiles>  (1) 
C(=Cc1nccc(N2CCCNCC2)n1)c1ccccc1

>  <vina_score>  (1) 
-5.853

>  <job_id>  (1) 
7a3500f8b1f8712f

$$$$
