
     RDKit          3D

 44 46  0  0  0  0  0  0  0  0999 V2000
   58.8490   81.1650   33.8100 C   0  0  0  0  0  0  0  0  0  0  0  0
   59.1860   81.1540   32.3480 C   0  0  0  0  0  0  0  0  0  0  0  0
   60.0780   82.0920   31.8190 C   0  0  0  0  0  0  0  0  0  0  0  0
   60.3540   82.1030   30.4540 C   0  0  0  0  0  0  0  0  0  0  0  0
   59.7330   81.1810   29.6090 C   0  0  0  0  0  0  0  0  0  0  0  0
   58.8260   80.2360   30.1100 C   0  0  0  0  0  0  0  0  0  0  0  0
   58.2420   79.3310   29.2040 N   0  0  0  0  0  0  0  0  0  0  0  0
   57.1450   79.4700   28.3500 C   0  0  0  0  0  0  0  0  0  0  0  0
   56.0460   78.6220   28.4030 C   0  0  0  0  0  0  0  0  0  0  0  0
   54.9940   78.8010   27.5010 C   0  0  0  0  0  0  0  0  0  0  0  0
   55.0410   79.8160   26.5440 C   0  0  0  0  0  0  0  0  0  0  0  0
   53.9770   79.9770   25.6410 N   0  0  0  0  0  0  0  0  0  0  0  0
   53.7880   78.9340   24.6180 C   0  0  0  0  0  0  0  0  0  0  0  0
   52.8050   79.4330   23.5140 C   0  0  0  0  0  0  0  0  0  0  0  0
   52.6420   80.8820   23.3050 N   0  0  0  0  0  0  0  0  0  0  0  0
   52.0440   81.1820   22.0060 C   0  0  0  0  0  0  0  0  0  0  0  0
   51.8820   81.4910   24.3910 C   0  0  0  0  0  0  0  0  0  0  0  0
   51.6520   80.5790   25.4500 O   0  0  0  0  0  0  0  0  0  0  0  0
   52.7670   80.4520   26.3190 C   0  0  0  0  0  0  0  0  0  0  0  0
   56.1980   80.5960   26.5620 C   0  0  0  0  0  0  0  0  0  0  0  0
   57.2390   80.4420   27.4230 N   0  0  0  0  0  0  0  0  0  0  0  0
   58.5580   80.2410   31.4840 C   0  0  0  0  0  0  0  0  0  0  0  0
   59.7767   81.1347   34.4004 H   0  0  0  0  0  0  0  0  0  0  0  0
   58.2909   82.0818   34.0508 H   0  0  0  0  0  0  0  0  0  0  0  0
   58.2323   80.2865   34.0508 H   0  0  0  0  0  0  0  0  0  0  0  0
   60.5629   82.8230   32.4827 H   0  0  0  0  0  0  0  0  0  0  0  0
   61.0611   82.8379   30.0416 H   0  0  0  0  0  0  0  0  0  0  0  0
   59.9590   81.1962   28.5326 H   0  0  0  0  0  0  0  0  0  0  0  0
   58.9370   78.7700   28.7200 H   0  0  0  0  0  0  0  0  0  0  0  0
   56.0042   77.8154   29.1497 H   0  0  0  0  0  0  0  0  0  0  0  0
   54.1196   78.1351   27.5456 H   0  0  0  0  0  0  0  0  0  0  0  0
   54.7587   78.6952   24.1590 H   0  0  0  0  0  0  0  0  0  0  0  0
   53.3666   78.0365   25.0944 H   0  0  0  0  0  0  0  0  0  0  0  0
   53.1482   79.0063   22.5600 H   0  0  0  0  0  0  0  0  0  0  0  0
   51.8178   79.1054   23.8720 H   0  0  0  0  0  0  0  0  0  0  0  0
   51.0698   81.6707   22.1549 H   0  0  0  0  0  0  0  0  0  0  0  0
   52.7087   81.8534   21.4426 H   0  0  0  0  0  0  0  0  0  0  0  0
   51.9033   80.2478   21.4426 H   0  0  0  0  0  0  0  0  0  0  0  0
   52.4447   82.3527   24.7795 H   0  0  0  0  0  0  0  0  0  0  0  0
   50.9058   81.8029   23.9913 H   0  0  0  0  0  0  0  0  0  0  0  0
   52.9784   81.4362   26.7625 H   0  0  0  0  0  0  0  0  0  0  0  0
   52.5040   79.7032   27.0806 H   0  0  0  0  0  0  0  0  0  0  0  0
   56.2742   81.4024   25.8178 H   0  0  0  0  0  0  0  0  0  0  0  0
   57.8411   79.5153   31.8957 H   0  0  0  0  0  0  0  0  0  0  0  0
  1  2  1  0
  2  3  2  0
  3  4  1  0
  4  5  2  0
  5  6  1  0
  6  7  1  0
  7  8  1  0
  8  9  2  0
  9 10  1  0
 10 11  2  0
 11 12  1  0
 12 13  1  0
 13 14  1  0
 14 15  1  0
 15 16  1  0
 15 17  1  0
 17 18  1  0
 18 19  1  0
 11 20  1  0
 20 21  2  0
  6 22  2  0
 22  2  1  0
 21  8  1  0
 19 12  1  0
  1 23  1  0
  1 24  1  0
  1 25  1  0
  3 26  1  0
  4 27  1  0
  5 28  1  0
  7 29  1  0
  9 30  1  0
 10 31  1  0
 13 32  1  0
 13 33  1  0
 14 34  1  0
 14 35  1  0
 16 36  1  0
 16 37  1  0
 16 38  1  0
 17 39  1  0
 17 40  1  0
 19 41  1  0
 19 42  1  0
 20 43  1  0
 22 44  1  0
M  END
>  <meeko>  (1) 
{"is_sidechain": false}

>  <smiles>  (1) 
Cc1cccc(Nc2ccc(N3CCN(C)COC3)cn2)c1

>  <vina_score>  (1) 
-6.225

>  <job_id>  (1) 
7a4624e56663c4cd

$$$$
