
     RDKit          3D

 57 60  0  0  0  0  0  0  0  0999 V2000
   52.5600   81.7320   21.5730 C   0  0  0  0  0  0  0  0  0  0  0  0
   51.2930   81.5710   22.4080 C   0  0  0  0  0  0  0  0  0  0  0  0
   51.4520   80.6080   23.5070 N   0  0  0  0  0  0  0  0  0  0  0  0
   51.6110   81.2920   24.8100 C   0  0  0  0  0  0  0  0  0  0  0  0
   53.0650   81.4610   25.3110 C   0  0  0  0  0  0  0  0  0  0  0  0
   53.7580   80.1640   25.3860 N   0  0  0  0  0  0  0  0  0  0  0  0
   54.7700   79.9410   26.3030 C   0  0  0  0  0  0  0  0  0  0  0  0
   54.6830   78.9270   27.2680 C   0  0  0  0  0  0  0  0  0  0  0  0
   55.7010   78.6950   28.2050 C   0  0  0  0  0  0  0  0  0  0  0  0
   56.8520   79.4790   28.2260 C   0  0  0  0  0  0  0  0  0  0  0  0
   57.9170   79.2640   29.1170 N   0  0  0  0  0  0  0  0  0  0  0  0
   58.6330   80.1340   29.9540 C   0  0  0  0  0  0  0  0  0  0  0  0
   58.3380   80.1640   31.3200 C   0  0  0  0  0  0  0  0  0  0  0  0
   59.0510   80.9860   32.2050 C   0  0  0  0  0  0  0  0  0  0  0  0
   60.0880   81.8110   31.7580 C   0  0  0  0  0  0  0  0  0  0  0  0
   60.8270   82.6570   32.5940 N   0  0  0  0  0  0  0  0  0  0  0  0
   62.2810   82.8240   32.3860 C   0  0  0  0  0  0  0  0  0  0  0  0
   63.0680   82.0790   33.4740 C   0  0  0  0  0  0  0  0  0  0  0  0
   62.7920   82.5490   34.8060 O   0  0  0  0  0  0  0  0  0  0  0  0
   61.5060   83.1790   34.9290 C   0  0  0  0  0  0  0  0  0  0  0  0
   60.4330   82.5550   34.0220 C   0  0  0  0  0  0  0  0  0  0  0  0
   60.3820   81.7710   30.3870 C   0  0  0  0  0  0  0  0  0  0  0  0
   59.6730   80.9460   29.5010 C   0  0  0  0  0  0  0  0  0  0  0  0
   56.9570   80.4920   27.2700 C   0  0  0  0  0  0  0  0  0  0  0  0
   55.9350   80.7170   26.3340 C   0  0  0  0  0  0  0  0  0  0  0  0
   53.2110   79.0860   24.5470 C   0  0  0  0  0  0  0  0  0  0  0  0
   52.5710   79.6690   23.2650 C   0  0  0  0  0  0  0  0  0  0  0  0
   53.4274   81.8422   22.2404 H   0  0  0  0  0  0  0  0  0  0  0  0
   52.6962   80.8439   20.9383 H   0  0  0  0  0  0  0  0  0  0  0  0
   52.4697   82.6259   20.9383 H   0  0  0  0  0  0  0  0  0  0  0  0
   51.0266   82.5495   22.8342 H   0  0  0  0  0  0  0  0  0  0  0  0
   50.5055   81.1867   21.7431 H   0  0  0  0  0  0  0  0  0  0  0  0
   51.1664   82.2942   24.7211 H   0  0  0  0  0  0  0  0  0  0  0  0
   51.1148   80.6451   25.5485 H   0  0  0  0  0  0  0  0  0  0  0  0
   53.6091   82.1186   24.6172 H   0  0  0  0  0  0  0  0  0  0  0  0
   53.0365   81.8988   26.3197 H   0  0  0  0  0  0  0  0  0  0  0  0
   53.7854   78.2916   27.2910 H   0  0  0  0  0  0  0  0  0  0  0  0
   55.5883   77.8802   28.9354 H   0  0  0  0  0  0  0  0  0  0  0  0
   58.2310   78.3020   29.1550 H   0  0  0  0  0  0  0  0  0  0  0  0
   57.5287   79.5289   31.7095 H   0  0  0  0  0  0  0  0  0  0  0  0
   58.7890   80.9817   33.2733 H   0  0  0  0  0  0  0  0  0  0  0  0
   62.5546   82.4199   31.4002 H   0  0  0  0  0  0  0  0  0  0  0  0
   62.5276   83.8947   32.4381 H   0  0  0  0  0  0  0  0  0  0  0  0
   62.8095   81.0111   33.4211 H   0  0  0  0  0  0  0  0  0  0  0  0
   64.1359   82.2599   33.2819 H   0  0  0  0  0  0  0  0  0  0  0  0
   61.1733   83.0921   35.9739 H   0  0  0  0  0  0  0  0  0  0  0  0
   61.6260   84.2271   34.6176 H   0  0  0  0  0  0  0  0  0  0  0  0
   60.3085   81.4947   34.2871 H   0  0  0  0  0  0  0  0  0  0  0  0
   59.4880   83.0989   34.1673 H   0  0  0  0  0  0  0  0  0  0  0  0
   61.1915   82.4045   29.9954 H   0  0  0  0  0  0  0  0  0  0  0  0
   59.9409   80.9393   28.4341 H   0  0  0  0  0  0  0  0  0  0  0  0
   57.8565   81.1248   27.2501 H   0  0  0  0  0  0  0  0  0  0  0  0
   56.0534   81.5290   25.6015 H   0  0  0  0  0  0  0  0  0  0  0  0
   54.0226   78.3987   24.2661 H   0  0  0  0  0  0  0  0  0  0  0  0
   52.4391   78.5483   25.1171 H   0  0  0  0  0  0  0  0  0  0  0  0
   53.3520   80.2032   22.7040 H   0  0  0  0  0  0  0  0  0  0  0  0
   52.1490   78.8169   22.7120 H   0  0  0  0  0  0  0  0  0  0  0  0
  1  2  1  0
  2  3  1  0
  3  4  1  0
  4  5  1  0
  5  6  1  0
  6  7  1  0
  7  8  1  0
  8  9  2  0
  9 10  1  0
 10 11  1  0
 11 12  1  0
 12 13  1  0
 13 14  2  0
 14 15  1  0
 15 16  1  0
 16 17  1  0
 17 18  1  0
 18 19  1  0
 19 20  1  0
 20 21  1  0
 15 22  2  0
 22 23  1  0
 10 24  2  0
 24 25  1  0
  6 26  1  0
 26 27  1  0
 27  3  1  0
 25  7  2  0
 23 12  2  0
 21 16  1  0
  1 28  1  0
  1 29  1  0
  1 30  1  0
  2 31  1  0
  2 32  1  0
  4 33  1  0
  4 34  1  0
  5 35  1  0
  5 36  1  0
  8 37  1  0
  9 38  1  0
 11 39  1  0
 13 40  1  0
 14 41  1  0
 17 42  1  0
 17 43  1  0
 18 44  1  0
 18 45  1  0
 20 46  1  0
 20 47  1  0
 21 48  1  0
 21 49  1  0
 22 50  1  0
 23 51  1  0
 24 52  1  0
 25 53  1  0
 26 54  1  0
 26 55  1  0
 27 56  1  0
 27 57  1  0
M  END
>  <meeko>  (1) 
{"is_sidechain": false}

>  <smiles>  (1) 
CCN1CCN(c2ccc(Nc3ccc(N4CCOCC4)cc3)cc2)CC1

>  <vina_score>  (1) 
-8.308

>  <job_id>  (1) 
7a5cd2959a870ad3

$$$$
