
     RDKit          3D

 38 40  0  0  0  0  0  0  0  0999 V2000
   52.6370   81.1120   22.7420 C   0  0  0  0  0  0  0  0  0  0  0  0
   52.9420   80.3190   23.9610 C   0  0  0  0  0  0  0  0  0  0  0  0
   52.5740   79.0680   24.1480 N   0  0  0  0  0  0  0  0  0  0  0  0
   53.0420   78.7140   25.3880 C   0  0  0  0  0  0  0  0  0  0  0  0
   52.9350   77.5020   26.0890 C   0  0  0  0  0  0  0  0  0  0  0  0
   52.2950   76.4490   25.5580 F   0  0  0  0  0  0  0  0  0  0  0  0
   53.4940   77.3790   27.3630 C   0  0  0  0  0  0  0  0  0  0  0  0
   54.1620   78.4560   27.9560 C   0  0  0  0  0  0  0  0  0  0  0  0
   54.7610   78.3170   29.3380 C   0  0  0  0  0  0  0  0  0  0  0  0
   55.7970   77.2130   29.4130 C   0  0  0  0  0  0  0  0  0  0  0  0
   57.0230   77.5230   28.8950 N   0  0  0  0  0  0  0  0  0  0  0  0
   55.5760   76.1070   29.8950 O   0  0  0  0  0  0  0  0  0  0  0  0
   54.2880   79.6750   27.2610 C   0  0  0  0  0  0  0  0  0  0  0  0
   53.7170   79.7790   25.9820 C   0  0  0  0  0  0  0  0  0  0  0  0
   53.6460   80.7970   25.0510 N   0  0  0  0  0  0  0  0  0  0  0  0
   54.1950   82.1350   25.1800 C   0  0  0  0  0  0  0  0  0  0  0  0
   55.6150   82.2100   25.7700 C   0  0  0  0  0  0  0  0  0  0  0  0
   55.5600   83.2810   26.8570 C   0  0  0  0  0  0  0  0  0  0  0  0
   54.3390   84.1210   26.5190 C   0  0  0  0  0  0  0  0  0  0  0  0
   53.3360   83.0920   26.0160 C   0  0  0  0  0  0  0  0  0  0  0  0
   52.2563   82.1018   23.0342 H   0  0  0  0  0  0  0  0  0  0  0  0
   53.5527   81.2330   22.1447 H   0  0  0  0  0  0  0  0  0  0  0  0
   51.8762   80.5882   22.1447 H   0  0  0  0  0  0  0  0  0  0  0  0
   53.4083   76.4260   27.9056 H   0  0  0  0  0  0  0  0  0  0  0  0
   55.2392   79.2688   29.6126 H   0  0  0  0  0  0  0  0  0  0  0  0
   53.9466   78.0589   30.0310 H   0  0  0  0  0  0  0  0  0  0  0  0
   57.6800   76.7550   28.8360 H   0  0  0  0  0  0  0  0  0  0  0  0
   57.1140   78.2570   28.2060 H   0  0  0  0  0  0  0  0  0  0  0  0
   54.8214   80.5259   27.7098 H   0  0  0  0  0  0  0  0  0  0  0  0
   54.2148   82.4476   24.1255 H   0  0  0  0  0  0  0  0  0  0  0  0
   55.9014   81.2400   26.2026 H   0  0  0  0  0  0  0  0  0  0  0  0
   56.3605   82.4547   24.9990 H   0  0  0  0  0  0  0  0  0  0  0  0
   55.4493   82.8195   27.8494 H   0  0  0  0  0  0  0  0  0  0  0  0
   56.4798   83.8833   26.8910 H   0  0  0  0  0  0  0  0  0  0  0  0
   53.9580   84.6397   27.4111 H   0  0  0  0  0  0  0  0  0  0  0  0
   54.5500   84.9121   25.7844 H   0  0  0  0  0  0  0  0  0  0  0  0
   52.8609   82.5629   26.8552 H   0  0  0  0  0  0  0  0  0  0  0  0
   52.5121   83.5412   25.4420 H   0  0  0  0  0  0  0  0  0  0  0  0
  1  2  1  0
  2  3  2  0
  3  4  1  0
  4  5  2  0
  5  6  1  0
  5  7  1  0
  7  8  2  0
  8  9  1  0
  9 10  1  0
 10 11  1  0
 10 12  2  0
  8 13  1  0
 13 14  2  0
 14 15  1  0
 15 16  1  0
 16 17  1  0
 17 18  1  0
 18 19  1  0
 19 20  1  0
 15  2  1  0
 20 16  1  0
 14  4  1  0
  1 21  1  0
  1 22  1  0
  1 23  1  0
  7 24  1  0
  9 25  1  0
  9 26  1  0
 11 27  1  0
 11 28  1  0
 13 29  1  0
 16 30  1  0
 17 31  1  0
 17 32  1  0
 18 33  1  0
 18 34  1  0
 19 35  1  0
 19 36  1  0
 20 37  1  0
 20 38  1  0
M  END
>  <meeko>  (1) 
{"is_sidechain": false}

>  <smiles>  (1) 
Cc1nc2c(F)cc(CC(N)=O)cc2n1C1CCCC1

>  <vina_score>  (1) 
-7.664

>  <job_id>  (1) 
7a5f44a1660bd061

$$$$
