
     RDKit          3D

 75 80  0  0  0  0  0  0  0  0999 V2000
   51.9480   83.1160   22.6740 C   0  0  0  0  0  0  0  0  0  0  0  0
   52.4420   81.9720   23.4820 C   0  0  0  0  0  0  0  0  0  0  0  0
   52.4130   80.7220   23.0630 N   0  0  0  0  0  0  0  0  0  0  0  0
   52.9370   79.9620   24.0750 C   0  0  0  0  0  0  0  0  0  0  0  0
   53.1280   78.5760   24.1720 C   0  0  0  0  0  0  0  0  0  0  0  0
   52.7790   77.7580   23.1670 F   0  0  0  0  0  0  0  0  0  0  0  0
   53.6850   78.0250   25.3300 C   0  0  0  0  0  0  0  0  0  0  0  0
   54.0690   78.8270   26.4190 C   0  0  0  0  0  0  0  0  0  0  0  0
   54.6520   78.2490   27.6510 C   0  0  0  0  0  0  0  0  0  0  0  0
   55.9360   78.6130   27.9080 N   0  0  0  0  0  0  0  0  0  0  0  0
   56.5390   78.1360   29.0120 C   0  0  0  0  0  0  0  0  0  0  0  0
   57.8390   78.5600   29.2070 N   0  0  0  0  0  0  0  0  0  0  0  0
   58.4310   79.7400   29.6150 C   0  0  0  0  0  0  0  0  0  0  0  0
   59.0540   80.6410   28.7630 C   0  0  0  0  0  0  0  0  0  0  0  0
   59.6190   81.8060   29.2810 C   0  0  0  0  0  0  0  0  0  0  0  0
   59.5470   82.0600   30.6480 C   0  0  0  0  0  0  0  0  0  0  0  0
   58.9210   81.1070   31.4460 C   0  0  0  0  0  0  0  0  0  0  0  0
   58.3610   79.9750   30.9460 N   0  0  0  0  0  0  0  0  0  0  0  0
   58.7690   81.3310   32.9270 C   0  0  0  0  0  0  0  0  0  0  0  0
   59.6520   82.4720   33.4430 C   0  0  0  0  0  0  0  0  0  0  0  0
   59.6740   83.6610   32.5730 N   0  0  0  0  0  0  0  0  0  0  0  0
   58.3620   84.3390   32.5220 C   0  0  0  0  0  0  0  0  0  0  0  0
   58.2270   85.4050   31.4070 C   0  0  0  0  0  0  0  0  0  0  0  0
   58.4530   86.7890   31.8630 N   0  0  0  0  0  0  0  0  0  0  0  0
   59.8430   87.1400   32.1620 C   0  0  0  0  0  0  0  0  0  0  0  0
   57.4460   87.4730   32.5690 C   0  0  0  0  0  0  0  0  0  0  0  0
   57.4460   87.6620   34.2440 S   0  0  0  0  0  0  0  0  0  0  0  0
   56.4450   87.9490   31.6810 N   0  0  0  0  0  0  0  0  0  0  0  0
   56.6220   88.4190   30.3900 C   0  0  0  0  0  0  0  0  0  0  0  0
   55.3790   88.7810   29.9330 C   0  0  0  0  0  0  0  0  0  0  0  0
   54.4330   88.5810   30.8940 N   0  0  0  0  0  0  0  0  0  0  0  0
   55.0910   88.1070   31.9270 C   0  0  0  0  0  0  0  0  0  0  0  0
   60.1950   83.2790   31.2490 C   0  0  0  0  0  0  0  0  0  0  0  0
   55.9320   77.3010   29.8700 N   0  0  0  0  0  0  0  0  0  0  0  0
   54.6620   76.9460   29.5920 C   0  0  0  0  0  0  0  0  0  0  0  0
   53.9730   77.3920   28.4930 C   0  0  0  0  0  0  0  0  0  0  0  0
   52.7190   76.9790   28.2690 F   0  0  0  0  0  0  0  0  0  0  0  0
   53.8670   80.2250   26.3210 C   0  0  0  0  0  0  0  0  0  0  0  0
   53.3110   80.7640   25.1470 C   0  0  0  0  0  0  0  0  0  0  0  0
   52.9960   82.0530   24.7460 N   0  0  0  0  0  0  0  0  0  0  0  0
   53.2070   83.2430   25.5690 C   0  0  0  0  0  0  0  0  0  0  0  0
   54.6920   83.5450   25.7620 C   0  0  0  0  0  0  0  0  0  0  0  0
   52.4460   83.2330   26.8960 C   0  0  0  0  0  0  0  0  0  0  0  0
   51.6024   83.9164   23.3447 H   0  0  0  0  0  0  0  0  0  0  0  0
   52.7624   83.4955   22.0394 H   0  0  0  0  0  0  0  0  0  0  0  0
   51.1133   82.7834   22.0394 H   0  0  0  0  0  0  0  0  0  0  0  0
   53.8264   76.9358   25.3906 H   0  0  0  0  0  0  0  0  0  0  0  0
   58.5150   77.8500   28.9770 H   0  0  0  0  0  0  0  0  0  0  0  0
   59.1020   80.4370   27.6831 H   0  0  0  0  0  0  0  0  0  0  0  0
   60.1196   82.5215   28.6121 H   0  0  0  0  0  0  0  0  0  0  0  0
   57.7178   81.5746   33.1406 H   0  0  0  0  0  0  0  0  0  0  0  0
   59.0831   80.4089   33.4378 H   0  0  0  0  0  0  0  0  0  0  0  0
   59.2796   82.7757   34.4325 H   0  0  0  0  0  0  0  0  0  0  0  0
   60.6812   82.0850   33.4746 H   0  0  0  0  0  0  0  0  0  0  0  0
   57.5875   83.5747   32.3608 H   0  0  0  0  0  0  0  0  0  0  0  0
   58.2511   84.8731   33.4772 H   0  0  0  0  0  0  0  0  0  0  0  0
   58.9616   85.1766   30.6207 H   0  0  0  0  0  0  0  0  0  0  0  0
   57.1886   85.3564   31.0474 H   0  0  0  0  0  0  0  0  0  0  0  0
   59.9857   87.1760   33.2521 H   0  0  0  0  0  0  0  0  0  0  0  0
   60.5136   86.3830   31.7292 H   0  0  0  0  0  0  0  0  0  0  0  0
   60.0738   88.1246   31.7292 H   0  0  0  0  0  0  0  0  0  0  0  0
   57.5717   88.4885   29.8393 H   0  0  0  0  0  0  0  0  0  0  0  0
   55.1742   89.1784   28.9279 H   0  0  0  0  0  0  0  0  0  0  0  0
   54.6160   87.8609   32.8882 H   0  0  0  0  0  0  0  0  0  0  0  0
   60.0394   84.1241   30.5622 H   0  0  0  0  0  0  0  0  0  0  0  0
   61.2566   83.0290   31.3921 H   0  0  0  0  0  0  0  0  0  0  0  0
   54.1501   76.2613   30.2841 H   0  0  0  0  0  0  0  0  0  0  0  0
   54.1429   80.8846   27.1569 H   0  0  0  0  0  0  0  0  0  0  0  0
   52.7672   84.0721   24.9952 H   0  0  0  0  0  0  0  0  0  0  0  0
   54.9200   83.5914   26.8371 H   0  0  0  0  0  0  0  0  0  0  0  0
   55.2916   82.7504   25.2939 H   0  0  0  0  0  0  0  0  0  0  0  0
   54.9336   84.5107   25.2939 H   0  0  0  0  0  0  0  0  0  0  0  0
   53.1632   83.2424   27.7300 H   0  0  0  0  0  0  0  0  0  0  0  0
   51.8020   84.1228   26.9561 H   0  0  0  0  0  0  0  0  0  0  0  0
   51.8256   82.3266   26.9561 H   0  0  0  0  0  0  0  0  0  0  0  0
  1  2  1  0
  2  3  2  0
  3  4  1  0
  4  5  2  0
  5  6  1  0
  5  7  1  0
  7  8  2  0
  8  9  1  0
  9 10  2  0
 10 11  1  0
 11 12  1  0
 12 13  1  0
 13 14  1  0
 14 15  2  0
 15 16  1  0
 16 17  2  0
 17 18  1  0
 17 19  1  0
 19 20  1  0
 20 21  1  0
 21 22  1  0
 22 23  1  0
 23 24  1  0
 24 25  1  0
 24 26  1  0
 26 27  2  0
 26 28  1  0
 28 29  1  0
 29 30  2  0
 30 31  1  0
 31 32  2  0
 21 33  1  0
 11 34  2  0
 34 35  1  0
 35 36  2  0
 36 37  1  0
  8 38  1  0
 38 39  2  0
 39 40  1  0
 40 41  1  0
 41 42  1  0
 41 43  1  0
 40  2  1  0
 39  4  1  0
 36  9  1  0
 18 13  2  0
 32 28  1  0
 33 16  1  0
  1 44  1  0
  1 45  1  0
  1 46  1  0
  7 47  1  0
 12 48  1  0
 14 49  1  0
 15 50  1  0
 19 51  1  0
 19 52  1  0
 20 53  1  0
 20 54  1  0
 22 55  1  0
 22 56  1  0
 23 57  1  0
 23 58  1  0
 25 59  1  0
 25 60  1  0
 25 61  1  0
 29 62  1  0
 30 63  1  0
 32 64  1  0
 33 65  1  0
 33 66  1  0
 35 67  1  0
 38 68  1  0
 41 69  1  0
 42 70  1  0
 42 71  1  0
 42 72  1  0
 43 73  1  0
 43 74  1  0
 43 75  1  0
M  END
>  <meeko>  (1) 
{"is_sidechain": false}

>  <smiles>  (1) 
Cc1nc2c(F)cc(-c3nc(Nc4ccc5c(n4)CCN(CCN(C)C(=S)n4ccnc4)C5)ncc3F)cc2n1C(C)C

>  <vina_score>  (1) 
-8.605

>  <job_id>  (1) 
7b372ea65d11fb9d

$$$$
