
     RDKit          3D

 41 42  0  0  0  0  0  0  0  0999 V2000
   51.0980   76.6740   28.3950 C   0  0  0  0  0  0  0  0  0  0  0  0
   52.3980   76.0420   27.8920 C   0  0  0  0  0  0  0  0  0  0  0  0
   52.1850   75.3570   26.5400 C   0  0  0  0  0  0  0  0  0  0  0  0
   53.5250   77.0590   27.8310 C   0  0  0  0  0  0  0  0  0  0  0  0
   54.5690   77.0560   28.7660 C   0  0  0  0  0  0  0  0  0  0  0  0
   55.5970   78.0000   28.6910 C   0  0  0  0  0  0  0  0  0  0  0  0
   55.6020   78.9700   27.6820 C   0  0  0  0  0  0  0  0  0  0  0  0
   56.7260   79.9580   27.6490 C   0  0  0  0  0  0  0  0  0  0  0  0
   56.4950   81.1040   27.2710 O   0  0  0  0  0  0  0  0  0  0  0  0
   58.1050   79.4950   28.0970 C   0  0  0  0  0  0  0  0  0  0  0  0
   58.6350   80.2150   29.3170 C   0  0  0  0  0  0  0  0  0  0  0  0
   59.5530   81.2680   29.1780 C   0  0  0  0  0  0  0  0  0  0  0  0
   60.0300   81.9450   30.3010 C   0  0  0  0  0  0  0  0  0  0  0  0
   59.5870   81.5680   31.5710 C   0  0  0  0  0  0  0  0  0  0  0  0
   60.1930   82.4330   32.9940 S   0  0  0  0  0  0  0  0  0  0  0  0
   59.2770   81.7310   34.2230 N   0  0  0  0  0  0  0  0  0  0  0  0
   61.5730   82.0640   33.2070 O   0  0  0  0  0  0  0  0  0  0  0  0
   59.7540   83.8070   32.9250 O   0  0  0  0  0  0  0  0  0  0  0  0
   58.6570   80.5380   31.7270 C   0  0  0  0  0  0  0  0  0  0  0  0
   58.1850   79.8640   30.6000 C   0  0  0  0  0  0  0  0  0  0  0  0
   54.5640   78.9780   26.7430 C   0  0  0  0  0  0  0  0  0  0  0  0
   53.5360   78.0300   26.8200 C   0  0  0  0  0  0  0  0  0  0  0  0
   51.0931   76.6764   29.4950 H   0  0  0  0  0  0  0  0  0  0  0  0
   51.0260   77.7077   28.0258 H   0  0  0  0  0  0  0  0  0  0  0  0
   50.2406   76.0922   28.0258 H   0  0  0  0  0  0  0  0  0  0  0  0
   52.6982   75.2698   28.6156 H   0  0  0  0  0  0  0  0  0  0  0  0
   51.8620   74.3181   26.7022 H   0  0  0  0  0  0  0  0  0  0  0  0
   51.4123   75.8970   25.9731 H   0  0  0  0  0  0  0  0  0  0  0  0
   53.1276   75.3636   25.9731 H   0  0  0  0  0  0  0  0  0  0  0  0
   54.5795   76.3026   29.5675 H   0  0  0  0  0  0  0  0  0  0  0  0
   56.4098   77.9804   29.4319 H   0  0  0  0  0  0  0  0  0  0  0  0
   58.0502   78.4207   28.3272 H   0  0  0  0  0  0  0  0  0  0  0  0
   58.7971   79.7195   27.2721 H   0  0  0  0  0  0  0  0  0  0  0  0
   59.8990   81.5617   28.1760 H   0  0  0  0  0  0  0  0  0  0  0  0
   60.7494   82.7693   30.1871 H   0  0  0  0  0  0  0  0  0  0  0  0
   59.6440   80.7970   34.4110 H   0  0  0  0  0  0  0  0  0  0  0  0
   59.2380   82.3020   35.0660 H   0  0  0  0  0  0  0  0  0  0  0  0
   58.2996   80.2604   32.7296 H   0  0  0  0  0  0  0  0  0  0  0  0
   57.4540   79.0505   30.7177 H   0  0  0  0  0  0  0  0  0  0  0  0
   54.5557   79.7316   25.9417 H   0  0  0  0  0  0  0  0  0  0  0  0
   52.7255   78.0476   26.0765 H   0  0  0  0  0  0  0  0  0  0  0  0
  1  2  1  0
  2  3  1  0
  2  4  1  0
  4  5  1  0
  5  6  2  0
  6  7  1  0
  7  8  1  0
  8  9  2  0
  8 10  1  0
 10 11  1  0
 11 12  1  0
 12 13  2  0
 13 14  1  0
 14 15  1  0
 15 16  1  0
 15 17  2  0
 15 18  2  0
 14 19  2  0
 19 20  1  0
  7 21  2  0
 21 22  1  0
 22  4  2  0
 20 11  2  0
  1 23  1  0
  1 24  1  0
  1 25  1  0
  2 26  1  0
  3 27  1  0
  3 28  1  0
  3 29  1  0
  5 30  1  0
  6 31  1  0
 10 32  1  0
 10 33  1  0
 12 34  1  0
 13 35  1  0
 16 36  1  0
 16 37  1  0
 19 38  1  0
 20 39  1  0
 21 40  1  0
 22 41  1  0
M  END
>  <meeko>  (1) 
{"is_sidechain": false}

>  <smiles>  (1) 
CC(C)c1ccc(C(=O)Cc2ccc(S(N)(=O)=O)cc2)cc1

>  <vina_score>  (1) 
-8.155

>  <job_id>  (1) 
7b7ce1e742897465

$$$$
