
     RDKit          3D

 44 46  0  0  0  0  0  0  0  0999 V2000
   52.6770   81.6810   24.1850 C   0  0  0  0  0  0  0  0  0  0  0  0
   53.1540   80.4410   24.8490 C   0  0  0  0  0  0  0  0  0  0  0  0
   52.9400   79.2360   24.3620 N   0  0  0  0  0  0  0  0  0  0  0  0
   53.4820   78.3680   25.2590 C   0  0  0  0  0  0  0  0  0  0  0  0
   54.0490   79.0280   26.3330 C   0  0  0  0  0  0  0  0  0  0  0  0
   54.6810   78.4570   27.5230 C   0  0  0  0  0  0  0  0  0  0  0  0
   55.9390   78.8880   27.7660 N   0  0  0  0  0  0  0  0  0  0  0  0
   56.5470   78.4270   28.8690 C   0  0  0  0  0  0  0  0  0  0  0  0
   57.8280   78.9100   29.0860 N   0  0  0  0  0  0  0  0  0  0  0  0
   57.9260   80.3040   29.5040 C   0  0  0  0  0  0  0  0  0  0  0  0
   59.3060   80.8830   29.1440 C   0  0  0  0  0  0  0  0  0  0  0  0
   60.0600   81.0780   30.4600 C   0  0  0  0  0  0  0  0  0  0  0  0
   59.3100   80.2360   31.4760 C   0  0  0  0  0  0  0  0  0  0  0  0
   57.8630   80.3840   31.0350 C   0  0  0  0  0  0  0  0  0  0  0  0
   55.9910   77.5530   29.7200 N   0  0  0  0  0  0  0  0  0  0  0  0
   54.7320   77.1520   29.4490 C   0  0  0  0  0  0  0  0  0  0  0  0
   54.0240   77.5800   28.3580 C   0  0  0  0  0  0  0  0  0  0  0  0
   52.7760   77.1480   28.1360 F   0  0  0  0  0  0  0  0  0  0  0  0
   53.8800   80.3760   26.0280 N   0  0  0  0  0  0  0  0  0  0  0  0
   54.4130   81.4960   26.8050 C   0  0  0  0  0  0  0  0  0  0  0  0
   55.5600   82.2510   26.1250 C   0  0  0  0  0  0  0  0  0  0  0  0
   53.3100   82.4470   27.2690 C   0  0  0  0  0  0  0  0  0  0  0  0
   52.3928   82.4198   24.9488 H   0  0  0  0  0  0  0  0  0  0  0  0
   53.4807   82.0932   23.5572 H   0  0  0  0  0  0  0  0  0  0  0  0
   51.8042   81.4483   23.5572 H   0  0  0  0  0  0  0  0  0  0  0  0
   53.4703   77.2741   25.1434 H   0  0  0  0  0  0  0  0  0  0  0  0
   58.2880   78.2290   29.6800 H   0  0  0  0  0  0  0  0  0  0  0  0
   57.1093   80.8504   29.0095 H   0  0  0  0  0  0  0  0  0  0  0  0
   59.8525   80.1834   28.4945 H   0  0  0  0  0  0  0  0  0  0  0  0
   59.2056   81.8348   28.6018 H   0  0  0  0  0  0  0  0  0  0  0  0
   61.0997   80.7317   30.3640 H   0  0  0  0  0  0  0  0  0  0  0  0
   60.1047   82.1366   30.7556 H   0  0  0  0  0  0  0  0  0  0  0  0
   59.6314   79.1848   31.4338 H   0  0  0  0  0  0  0  0  0  0  0  0
   59.4826   80.5521   32.5154 H   0  0  0  0  0  0  0  0  0  0  0  0
   57.2456   79.5702   31.4431 H   0  0  0  0  0  0  0  0  0  0  0  0
   57.4082   81.3207   31.3896 H   0  0  0  0  0  0  0  0  0  0  0  0
   54.2494   76.4450   30.1398 H   0  0  0  0  0  0  0  0  0  0  0  0
   54.8608   81.0317   27.6960 H   0  0  0  0  0  0  0  0  0  0  0  0
   56.2189   82.6847   26.8917 H   0  0  0  0  0  0  0  0  0  0  0  0
   56.1361   81.5549   25.4976 H   0  0  0  0  0  0  0  0  0  0  0  0
   55.1484   83.0553   25.4976 H   0  0  0  0  0  0  0  0  0  0  0  0
   53.2838   82.4695   28.3685 H   0  0  0  0  0  0  0  0  0  0  0  0
   53.5127   83.4581   26.8862 H   0  0  0  0  0  0  0  0  0  0  0  0
   52.3397   82.0977   26.8862 H   0  0  0  0  0  0  0  0  0  0  0  0
  1  2  1  0
  2  3  2  0
  3  4  1  0
  4  5  2  0
  5  6  1  0
  6  7  2  0
  7  8  1  0
  8  9  1  0
  9 10  1  0
 10 11  1  0
 11 12  1  0
 12 13  1  0
 13 14  1  0
  8 15  2  0
 15 16  1  0
 16 17  2  0
 17 18  1  0
  5 19  1  0
 19 20  1  0
 20 21  1  0
 20 22  1  0
 19  2  1  0
 17  6  1  0
 14 10  1  0
  1 23  1  0
  1 24  1  0
  1 25  1  0
  4 26  1  0
  9 27  1  0
 10 28  1  0
 11 29  1  0
 11 30  1  0
 12 31  1  0
 12 32  1  0
 13 33  1  0
 13 34  1  0
 14 35  1  0
 14 36  1  0
 16 37  1  0
 20 38  1  0
 21 39  1  0
 21 40  1  0
 21 41  1  0
 22 42  1  0
 22 43  1  0
 22 44  1  0
M  END
>  <meeko>  (1) 
{"is_sidechain": false}

>  <smiles>  (1) 
Cc1ncc(-c2nc(NC3CCCC3)ncc2F)n1C(C)C

>  <vina_score>  (1) 
-7.464

>  <job_id>  (1) 
7cc55e6713649f76

$$$$
