
     RDKit          3D

 39 40  0  0  0  0  0  0  0  0999 V2000
   60.4240   83.2210   31.8580 C   0  0  0  0  0  0  0  0  0  0  0  0
   59.9560   82.2920   30.7950 C   0  0  0  0  0  0  0  0  0  0  0  0
   60.1500   82.4820   29.5070 N   0  0  0  0  0  0  0  0  0  0  0  0
   59.5610   81.4190   28.8860 C   0  0  0  0  0  0  0  0  0  0  0  0
   59.0010   80.5410   29.7930 C   0  0  0  0  0  0  0  0  0  0  0  0
   58.3010   79.3900   29.6370 N   0  0  0  0  0  0  0  0  0  0  0  0
   57.1610   79.1780   28.8320 C   0  0  0  0  0  0  0  0  0  0  0  0
   56.9090   79.8940   27.6530 C   0  0  0  0  0  0  0  0  0  0  0  0
   55.7440   79.6770   26.9100 C   0  0  0  0  0  0  0  0  0  0  0  0
   54.8060   78.7490   27.3610 C   0  0  0  0  0  0  0  0  0  0  0  0
   53.3280   78.4690   26.4170 S   0  0  0  0  0  0  0  0  0  0  0  0
   53.9260   78.3570   24.7500 C   0  0  0  0  0  0  0  0  0  0  0  0
   52.5090   79.6620   26.5200 O   0  0  0  0  0  0  0  0  0  0  0  0
   52.8040   77.1730   26.7990 O   0  0  0  0  0  0  0  0  0  0  0  0
   55.0330   78.0180   28.5260 C   0  0  0  0  0  0  0  0  0  0  0  0
   56.2040   78.2410   29.2570 C   0  0  0  0  0  0  0  0  0  0  0  0
   59.2560   81.1180   31.0260 N   0  0  0  0  0  0  0  0  0  0  0  0
   58.9060   80.6070   32.3520 C   0  0  0  0  0  0  0  0  0  0  0  0
   57.8100   81.4200   33.0430 C   0  0  0  0  0  0  0  0  0  0  0  0
   60.1340   80.4100   33.2400 C   0  0  0  0  0  0  0  0  0  0  0  0
   60.2059   82.7880   32.8454 H   0  0  0  0  0  0  0  0  0  0  0  0
   61.5082   83.3769   31.7574 H   0  0  0  0  0  0  0  0  0  0  0  0
   59.9040   84.1851   31.7574 H   0  0  0  0  0  0  0  0  0  0  0  0
   59.5354   81.2786   27.7953 H   0  0  0  0  0  0  0  0  0  0  0  0
   58.5940   78.5400   30.1050 H   0  0  0  0  0  0  0  0  0  0  0  0
   57.6401   80.6392   27.3064 H   0  0  0  0  0  0  0  0  0  0  0  0
   55.5692   80.2338   25.9776 H   0  0  0  0  0  0  0  0  0  0  0  0
   55.0071   78.1545   24.7611 H   0  0  0  0  0  0  0  0  0  0  0  0
   53.4054   77.5407   24.2278 H   0  0  0  0  0  0  0  0  0  0  0  0
   53.7361   79.3063   24.2278 H   0  0  0  0  0  0  0  0  0  0  0  0
   54.2985   77.2734   28.8668 H   0  0  0  0  0  0  0  0  0  0  0  0
   56.3793   77.6722   30.1821 H   0  0  0  0  0  0  0  0  0  0  0  0
   58.4733   79.6098   32.1838 H   0  0  0  0  0  0  0  0  0  0  0  0
   57.9236   81.3358   34.1339 H   0  0  0  0  0  0  0  0  0  0  0  0
   57.8942   82.4758   32.7460 H   0  0  0  0  0  0  0  0  0  0  0  0
   56.8240   81.0331   32.7460 H   0  0  0  0  0  0  0  0  0  0  0  0
   59.8336   80.4582   34.2971 H   0  0  0  0  0  0  0  0  0  0  0  0
   60.5839   79.4282   33.0311 H   0  0  0  0  0  0  0  0  0  0  0  0
   60.8684   81.2018   33.0311 H   0  0  0  0  0  0  0  0  0  0  0  0
  1  2  1  0
  2  3  2  0
  3  4  1  0
  4  5  2  0
  5  6  1  0
  6  7  1  0
  7  8  1  0
  8  9  2  0
  9 10  1  0
 10 11  1  0
 11 12  1  0
 11 13  2  0
 11 14  2  0
 10 15  2  0
 15 16  1  0
  5 17  1  0
 17 18  1  0
 18 19  1  0
 18 20  1  0
 17  2  1  0
 16  7  2  0
  1 21  1  0
  1 22  1  0
  1 23  1  0
  4 24  1  0
  6 25  1  0
  8 26  1  0
  9 27  1  0
 12 28  1  0
 12 29  1  0
 12 30  1  0
 15 31  1  0
 16 32  1  0
 18 33  1  0
 19 34  1  0
 19 35  1  0
 19 36  1  0
 20 37  1  0
 20 38  1  0
 20 39  1  0
M  END
>  <meeko>  (1) 
{"is_sidechain": false}

>  <smiles>  (1) 
Cc1ncc(Nc2ccc(S(C)(=O)=O)cc2)n1C(C)C

>  <vina_score>  (1) 
-7.216

>  <job_id>  (1) 
7cf1680e81904873

$$$$
