
     RDKit          3D

 42 43  0  0  0  0  0  0  0  0999 V2000
   53.3640   81.6700   24.6690 C   0  0  0  0  0  0  0  0  0  0  0  0
   54.0940   81.1280   25.9110 C   0  0  0  0  0  0  0  0  0  0  0  0
   55.5940   81.4210   25.7740 C   0  0  0  0  0  0  0  0  0  0  0  0
   53.5400   81.8300   27.1580 C   0  0  0  0  0  0  0  0  0  0  0  0
   53.7910   79.3320   25.9940 S   0  0  0  0  0  0  0  0  0  0  0  0
   54.4350   78.7020   24.8560 O   0  0  0  0  0  0  0  0  0  0  0  0
   52.3760   79.1130   26.2350 O   0  0  0  0  0  0  0  0  0  0  0  0
   54.6500   78.7570   27.4460 C   0  0  0  0  0  0  0  0  0  0  0  0
   54.2940   77.5350   28.0190 C   0  0  0  0  0  0  0  0  0  0  0  0
   54.9910   77.0750   29.1330 C   0  0  0  0  0  0  0  0  0  0  0  0
   56.0480   77.8260   29.6570 C   0  0  0  0  0  0  0  0  0  0  0  0
   56.4370   79.0440   29.0740 C   0  0  0  0  0  0  0  0  0  0  0  0
   57.5630   79.8190   29.6200 C   0  0  0  0  0  0  0  0  0  0  0  0
   57.8100   79.8570   31.0050 C   0  0  0  0  0  0  0  0  0  0  0  0
   58.8760   80.5950   31.5270 C   0  0  0  0  0  0  0  0  0  0  0  0
   59.7120   81.3010   30.6610 C   0  0  0  0  0  0  0  0  0  0  0  0
   61.0580   82.2430   31.3300 S   0  0  0  0  0  0  0  0  0  0  0  0
   62.3370   81.7320   30.3610 N   0  0  0  0  0  0  0  0  0  0  0  0
   61.3110   81.7890   32.6760 O   0  0  0  0  0  0  0  0  0  0  0  0
   60.8540   83.6350   31.0000 O   0  0  0  0  0  0  0  0  0  0  0  0
   59.4820   81.2940   29.2860 C   0  0  0  0  0  0  0  0  0  0  0  0
   58.4140   80.5510   28.7730 C   0  0  0  0  0  0  0  0  0  0  0  0
   55.7270   79.4960   27.9510 C   0  0  0  0  0  0  0  0  0  0  0  0
   52.5182   82.2980   24.9857 H   0  0  0  0  0  0  0  0  0  0  0  0
   54.0614   82.2708   24.0668 H   0  0  0  0  0  0  0  0  0  0  0  0
   52.9906   80.8286   24.0668 H   0  0  0  0  0  0  0  0  0  0  0  0
   56.0433   81.5088   26.7742 H   0  0  0  0  0  0  0  0  0  0  0  0
   56.0792   80.6006   25.2248 H   0  0  0  0  0  0  0  0  0  0  0  0
   55.7348   82.3636   25.2248 H   0  0  0  0  0  0  0  0  0  0  0  0
   53.9297   81.3362   28.0604 H   0  0  0  0  0  0  0  0  0  0  0  0
   53.8516   82.8849   27.1538 H   0  0  0  0  0  0  0  0  0  0  0  0
   52.4415   81.7721   27.1538 H   0  0  0  0  0  0  0  0  0  0  0  0
   53.4709   76.9413   27.5946 H   0  0  0  0  0  0  0  0  0  0  0  0
   54.7101   76.1201   29.6013 H   0  0  0  0  0  0  0  0  0  0  0  0
   56.5853   77.4561   30.5427 H   0  0  0  0  0  0  0  0  0  0  0  0
   57.1537   79.2970   31.6875 H   0  0  0  0  0  0  0  0  0  0  0  0
   59.0546   80.6191   32.6121 H   0  0  0  0  0  0  0  0  0  0  0  0
   62.0950   81.6700   29.3720 H   0  0  0  0  0  0  0  0  0  0  0  0
   63.1370   82.3480   30.5200 H   0  0  0  0  0  0  0  0  0  0  0  0
   60.1344   81.8674   28.6110 H   0  0  0  0  0  0  0  0  0  0  0  0
   58.2365   80.5390   27.6875 H   0  0  0  0  0  0  0  0  0  0  0  0
   56.0187   80.4380   27.4637 H   0  0  0  0  0  0  0  0  0  0  0  0
  1  2  1  0
  2  3  1  0
  2  4  1  0
  2  5  1  0
  5  6  2  0
  5  7  2  0
  5  8  1  0
  8  9  2  0
  9 10  1  0
 10 11  2  0
 11 12  1  0
 12 13  1  0
 13 14  1  0
 14 15  2  0
 15 16  1  0
 16 17  1  0
 17 18  1  0
 17 19  2  0
 17 20  2  0
 16 21  2  0
 21 22  1  0
 12 23  2  0
 23  8  1  0
 22 13  2  0
  1 24  1  0
  1 25  1  0
  1 26  1  0
  3 27  1  0
  3 28  1  0
  3 29  1  0
  4 30  1  0
  4 31  1  0
  4 32  1  0
  9 33  1  0
 10 34  1  0
 11 35  1  0
 14 36  1  0
 15 37  1  0
 18 38  1  0
 18 39  1  0
 21 40  1  0
 22 41  1  0
 23 42  1  0
M  END
>  <meeko>  (1) 
{"is_sidechain": false}

>  <smiles>  (1) 
CC(C)(C)S(=O)(=O)c1cccc(-c2ccc(S(N)(=O)=O)cc2)c1

>  <vina_score>  (1) 
-8.056

>  <job_id>  (1) 
7d1888fd5afe2da2

$$$$
