
     RDKit          3D

 58 60  0  0  0  0  0  0  0  0999 V2000
   65.3990   87.4810   30.4220 C   0  0  0  0  0  0  0  0  0  0  0  0
   64.9160   86.0590   30.2690 C   0  0  0  0  0  0  0  0  0  0  0  0
   64.9360   85.4790   28.8750 C   0  0  0  0  0  0  0  0  0  0  0  0
   64.4880   85.4480   31.3330 N   0  0  0  0  0  0  0  0  0  0  0  0
   63.9960   84.1760   31.2250 C   0  0  0  0  0  0  0  0  0  0  0  0
   64.9350   82.7800   31.2870 S   0  0  0  0  0  0  0  0  0  0  0  0
   62.6360   84.1700   31.0050 N   0  0  0  0  0  0  0  0  0  0  0  0
   61.9360   83.0150   30.6380 N   0  0  0  0  0  0  0  0  0  0  0  0
   60.5940   82.9440   30.9530 C   0  0  0  0  0  0  0  0  0  0  0  0
   60.0340   83.8060   31.6280 O   0  0  0  0  0  0  0  0  0  0  0  0
   59.8290   81.7760   30.4400 C   0  0  0  0  0  0  0  0  0  0  0  0
   59.6470   81.6470   29.0600 C   0  0  0  0  0  0  0  0  0  0  0  0
   58.9350   80.5600   28.5320 C   0  0  0  0  0  0  0  0  0  0  0  0
   58.3840   79.5780   29.3620 C   0  0  0  0  0  0  0  0  0  0  0  0
   57.6730   78.4680   28.8950 N   0  0  0  0  0  0  0  0  0  0  0  0
   56.3210   78.1830   28.7330 C   0  0  0  0  0  0  0  0  0  0  0  0
   55.6430   77.4200   29.6070 N   0  0  0  0  0  0  0  0  0  0  0  0
   54.3370   77.1920   29.3500 C   0  0  0  0  0  0  0  0  0  0  0  0
   53.6850   77.7020   28.2620 C   0  0  0  0  0  0  0  0  0  0  0  0
   52.3880   77.4450   28.0490 F   0  0  0  0  0  0  0  0  0  0  0  0
   54.4450   78.4890   27.4270 C   0  0  0  0  0  0  0  0  0  0  0  0
   53.9060   79.0770   26.2100 C   0  0  0  0  0  0  0  0  0  0  0  0
   53.3080   78.4260   25.1460 C   0  0  0  0  0  0  0  0  0  0  0  0
   52.9470   79.2940   24.1590 N   0  0  0  0  0  0  0  0  0  0  0  0
   53.3000   80.4860   24.5870 C   0  0  0  0  0  0  0  0  0  0  0  0
   53.1140   81.7420   23.8120 C   0  0  0  0  0  0  0  0  0  0  0  0
   53.8590   80.4160   25.8570 N   0  0  0  0  0  0  0  0  0  0  0  0
   54.2440   81.5910   26.6410 C   0  0  0  0  0  0  0  0  0  0  0  0
   55.4980   82.3140   26.1440 C   0  0  0  0  0  0  0  0  0  0  0  0
   53.0750   82.5470   26.8730 C   0  0  0  0  0  0  0  0  0  0  0  0
   55.7560   78.7330   27.6440 N   0  0  0  0  0  0  0  0  0  0  0  0
   58.5780   79.7170   30.7430 C   0  0  0  0  0  0  0  0  0  0  0  0
   59.2880   80.7990   31.2700 C   0  0  0  0  0  0  0  0  0  0  0  0
   59.4320   80.8630   32.6030 F   0  0  0  0  0  0  0  0  0  0  0  0
   65.4825   87.7269   31.4909 H   0  0  0  0  0  0  0  0  0  0  0  0
   66.3837   87.5873   29.9433 H   0  0  0  0  0  0  0  0  0  0  0  0
   64.6828   88.1650   29.9433 H   0  0  0  0  0  0  0  0  0  0  0  0
   64.9738   84.3813   28.9351 H   0  0  0  0  0  0  0  0  0  0  0  0
   64.0267   85.7856   28.3372 H   0  0  0  0  0  0  0  0  0  0  0  0
   65.8220   85.8475   28.3372 H   0  0  0  0  0  0  0  0  0  0  0  0
   62.1730   85.0550   30.8080 H   0  0  0  0  0  0  0  0  0  0  0  0
   62.3950   82.3710   29.9940 H   0  0  0  0  0  0  0  0  0  0  0  0
   60.0661   82.4050   28.3819 H   0  0  0  0  0  0  0  0  0  0  0  0
   58.8072   80.4780   27.4425 H   0  0  0  0  0  0  0  0  0  0  0  0
   58.2060   77.6430   28.6570 H   0  0  0  0  0  0  0  0  0  0  0  0
   53.7688   76.5639   30.0519 H   0  0  0  0  0  0  0  0  0  0  0  0
   53.1437   77.3392   25.1018 H   0  0  0  0  0  0  0  0  0  0  0  0
   52.9890   82.5861   24.5062 H   0  0  0  0  0  0  0  0  0  0  0  0
   53.9962   81.9159   23.1784 H   0  0  0  0  0  0  0  0  0  0  0  0
   52.2193   81.6528   23.1784 H   0  0  0  0  0  0  0  0  0  0  0  0
   54.5326   81.1823   27.6206 H   0  0  0  0  0  0  0  0  0  0  0  0
   56.0902   82.6554   27.0058 H   0  0  0  0  0  0  0  0  0  0  0  0
   56.1012   81.6250   25.5345 H   0  0  0  0  0  0  0  0  0  0  0  0
   55.2039   83.1812   25.5345 H   0  0  0  0  0  0  0  0  0  0  0  0
   52.9164   82.6767   27.9537 H   0  0  0  0  0  0  0  0  0  0  0  0
   53.3021   83.5215   26.4161 H   0  0  0  0  0  0  0  0  0  0  0  0
   52.1649   82.1310   26.4161 H   0  0  0  0  0  0  0  0  0  0  0  0
   58.1635   78.9600   31.4250 H   0  0  0  0  0  0  0  0  0  0  0  0
  1  2  1  0
  2  3  1  0
  2  4  2  3
  4  5  1  0
  5  6  2  0
  5  7  1  0
  7  8  1  0
  8  9  1  0
  9 10  2  0
  9 11  1  0
 11 12  1  0
 12 13  2  0
 13 14  1  0
 14 15  1  0
 15 16  1  0
 16 17  2  0
 17 18  1  0
 18 19  2  0
 19 20  1  0
 19 21  1  0
 21 22  1  0
 22 23  2  0
 23 24  1  0
 24 25  2  0
 25 26  1  0
 25 27  1  0
 27 28  1  0
 28 29  1  0
 28 30  1  0
 21 31  2  0
 14 32  2  0
 32 33  1  0
 33 34  1  0
 33 11  2  0
 31 16  1  0
 27 22  1  0
  1 35  1  0
  1 36  1  0
  1 37  1  0
  3 38  1  0
  3 39  1  0
  3 40  1  0
  7 41  1  0
  8 42  1  0
 12 43  1  0
 13 44  1  0
 15 45  1  0
 18 46  1  0
 23 47  1  0
 26 48  1  0
 26 49  1  0
 26 50  1  0
 28 51  1  0
 29 52  1  0
 29 53  1  0
 29 54  1  0
 30 55  1  0
 30 56  1  0
 30 57  1  0
 32 58  1  0
M  END
>  <meeko>  (1) 
{"is_sidechain": false}

>  <smiles>  (1) 
CC(C)=NC(=S)NNC(=O)c1ccc(Nc2ncc(F)c(-c3cnc(C)n3C(C)C)n2)cc1F

>  <vina_score>  (1) 
-8.967

>  <job_id>  (1) 
7d896e5393977f47

$$$$
