
     RDKit          3D

 36 37  0  0  0  0  0  0  0  0999 V2000
   58.5560   80.2300   30.8290 C   0  0  0  0  0  0  0  0  0  0  0  0
   58.3520   79.7800   29.4010 C   0  0  0  0  0  0  0  0  0  0  0  0
   59.2230   80.0620   28.5770 O   0  0  0  0  0  0  0  0  0  0  0  0
   57.1630   79.0880   29.1140 N   0  0  0  0  0  0  0  0  0  0  0  0
   56.6850   78.0060   29.9770 C   0  0  0  0  0  0  0  0  0  0  0  0
   56.3070   79.4790   28.0140 C   0  0  0  0  0  0  0  0  0  0  0  0
   56.5680   80.6280   27.2560 C   0  0  0  0  0  0  0  0  0  0  0  0
   55.7290   81.0070   26.2010 C   0  0  0  0  0  0  0  0  0  0  0  0
   54.6130   80.2350   25.9020 C   0  0  0  0  0  0  0  0  0  0  0  0
   53.6740   80.5570   24.8070 C   0  0  0  0  0  0  0  0  0  0  0  0
   53.1100   79.5290   24.0260 C   0  0  0  0  0  0  0  0  0  0  0  0
   52.2180   79.8020   22.9840 C   0  0  0  0  0  0  0  0  0  0  0  0
   51.8890   81.1260   22.6980 C   0  0  0  0  0  0  0  0  0  0  0  0
   50.7670   81.4910   21.3760 S   0  0  0  0  0  0  0  0  0  0  0  0
   49.2960   81.0160   22.0450 N   0  0  0  0  0  0  0  0  0  0  0  0
   50.6850   82.9250   21.2240 O   0  0  0  0  0  0  0  0  0  0  0  0
   51.0600   80.6070   20.2720 O   0  0  0  0  0  0  0  0  0  0  0  0
   52.4250   82.1700   23.4540 C   0  0  0  0  0  0  0  0  0  0  0  0
   53.3120   81.8830   24.4960 C   0  0  0  0  0  0  0  0  0  0  0  0
   54.3200   79.1300   26.6220 N   0  0  0  0  0  0  0  0  0  0  0  0
   55.1600   78.7790   27.6370 C   0  0  0  0  0  0  0  0  0  0  0  0
   58.2008   79.4466   31.5146 H   0  0  0  0  0  0  0  0  0  0  0  0
   59.6258   80.4147   31.0060 H   0  0  0  0  0  0  0  0  0  0  0  0
   57.9898   81.1564   31.0060 H   0  0  0  0  0  0  0  0  0  0  0  0
   56.8123   78.2942   31.0309 H   0  0  0  0  0  0  0  0  0  0  0  0
   55.6203   77.8184   29.7742 H   0  0  0  0  0  0  0  0  0  0  0  0
   57.2633   77.0925   29.7742 H   0  0  0  0  0  0  0  0  0  0  0  0
   57.4480   81.2436   27.4940 H   0  0  0  0  0  0  0  0  0  0  0  0
   55.9518   81.9096   25.6130 H   0  0  0  0  0  0  0  0  0  0  0  0
   53.3783   78.4842   24.2414 H   0  0  0  0  0  0  0  0  0  0  0  0
   51.7809   78.9810   22.3967 H   0  0  0  0  0  0  0  0  0  0  0  0
   48.9010   80.2680   21.4700 H   0  0  0  0  0  0  0  0  0  0  0  0
   48.6410   81.7880   22.1620 H   0  0  0  0  0  0  0  0  0  0  0  0
   52.1512   83.2119   23.2313 H   0  0  0  0  0  0  0  0  0  0  0  0
   53.7361   82.7094   25.0853 H   0  0  0  0  0  0  0  0  0  0  0  0
   54.9135   77.8699   28.2051 H   0  0  0  0  0  0  0  0  0  0  0  0
  1  2  1  0
  2  3  2  0
  2  4  1  0
  4  5  1  0
  4  6  1  0
  6  7  2  0
  7  8  1  0
  8  9  2  0
  9 10  1  0
 10 11  1  0
 11 12  2  0
 12 13  1  0
 13 14  1  0
 14 15  1  0
 14 16  2  0
 14 17  2  0
 13 18  2  0
 18 19  1  0
  9 20  1  0
 20 21  2  0
 21  6  1  0
 19 10  2  0
  1 22  1  0
  1 23  1  0
  1 24  1  0
  5 25  1  0
  5 26  1  0
  5 27  1  0
  7 28  1  0
  8 29  1  0
 11 30  1  0
 12 31  1  0
 15 32  1  0
 15 33  1  0
 18 34  1  0
 19 35  1  0
 21 36  1  0
M  END
>  <meeko>  (1) 
{"is_sidechain": false}

>  <smiles>  (1) 
CC(=O)N(C)c1ccc(-c2ccc(S(N)(=O)=O)cc2)nc1

>  <vina_score>  (1) 
-7.444

>  <job_id>  (1) 
7dcbdd486d7d743a

$$$$
