
     RDKit          3D

 48 50  0  0  0  0  0  0  0  0999 V2000
   52.4000   81.0260   24.9810 C   0  0  0  0  0  0  0  0  0  0  0  0
   53.1610   80.5170   26.1090 N   0  0  0  0  0  0  0  0  0  0  0  0
   53.3100   81.4260   27.2380 C   0  0  0  0  0  0  0  0  0  0  0  0
   53.3790   79.1410   26.1760 C   0  0  0  0  0  0  0  0  0  0  0  0
   52.9350   78.3370   25.3600 O   0  0  0  0  0  0  0  0  0  0  0  0
   54.2150   78.6030   27.2670 C   0  0  0  0  0  0  0  0  0  0  0  0
   53.7180   77.5950   28.1030 C   0  0  0  0  0  0  0  0  0  0  0  0
   54.5060   77.1120   29.1480 C   0  0  0  0  0  0  0  0  0  0  0  0
   55.7770   77.6480   29.3680 C   0  0  0  0  0  0  0  0  0  0  0  0
   56.2590   78.6800   28.5480 C   0  0  0  0  0  0  0  0  0  0  0  0
   57.6100   79.2690   28.7510 C   0  0  0  0  0  0  0  0  0  0  0  0
   58.5200   78.8970   28.0200 O   0  0  0  0  0  0  0  0  0  0  0  0
   57.6860   80.2130   29.7550 N   0  0  0  0  0  0  0  0  0  0  0  0
   58.8330   80.9120   30.1920 C   0  0  0  0  0  0  0  0  0  0  0  0
   59.8140   81.4220   29.3530 C   0  0  0  0  0  0  0  0  0  0  0  0
   60.9200   82.1000   29.8950 C   0  0  0  0  0  0  0  0  0  0  0  0
   61.0900   82.2940   31.2760 C   0  0  0  0  0  0  0  0  0  0  0  0
   62.1780   82.9600   31.7890 N   0  0  0  0  0  0  0  0  0  0  0  0
   63.4350   83.1560   31.0690 C   0  0  0  0  0  0  0  0  0  0  0  0
   64.1720   84.2080   31.8930 C   0  0  0  0  0  0  0  0  0  0  0  0
   63.6830   83.9430   33.3060 C   0  0  0  0  0  0  0  0  0  0  0  0
   62.2090   83.6030   33.1010 C   0  0  0  0  0  0  0  0  0  0  0  0
   60.0890   81.7660   32.1010 C   0  0  0  0  0  0  0  0  0  0  0  0
   58.9900   81.0920   31.5660 C   0  0  0  0  0  0  0  0  0  0  0  0
   58.0600   80.6040   32.4050 F   0  0  0  0  0  0  0  0  0  0  0  0
   55.4770   79.1570   27.4910 C   0  0  0  0  0  0  0  0  0  0  0  0
   51.5386   81.6021   25.3499 H   0  0  0  0  0  0  0  0  0  0  0  0
   53.0419   81.6772   24.3695 H   0  0  0  0  0  0  0  0  0  0  0  0
   52.0433   80.1841   24.3695 H   0  0  0  0  0  0  0  0  0  0  0  0
   53.2175   80.8618   28.1777 H   0  0  0  0  0  0  0  0  0  0  0  0
   54.2988   81.9060   27.1943 H   0  0  0  0  0  0  0  0  0  0  0  0
   52.5262   82.1965   27.1943 H   0  0  0  0  0  0  0  0  0  0  0  0
   52.7106   77.1860   27.9363 H   0  0  0  0  0  0  0  0  0  0  0  0
   54.1268   76.3098   29.7981 H   0  0  0  0  0  0  0  0  0  0  0  0
   56.4018   77.2602   30.1861 H   0  0  0  0  0  0  0  0  0  0  0  0
   56.8240   80.5040   30.2030 H   0  0  0  0  0  0  0  0  0  0  0  0
   59.7261   81.2957   28.2638 H   0  0  0  0  0  0  0  0  0  0  0  0
   61.6840   82.4950   29.2092 H   0  0  0  0  0  0  0  0  0  0  0  0
   64.0107   82.2197   31.0253 H   0  0  0  0  0  0  0  0  0  0  0  0
   63.2811   83.4671   30.0252 H   0  0  0  0  0  0  0  0  0  0  0  0
   65.2614   84.0744   31.8206 H   0  0  0  0  0  0  0  0  0  0  0  0
   63.9784   85.2364   31.5541 H   0  0  0  0  0  0  0  0  0  0  0  0
   64.2239   83.0996   33.7599 H   0  0  0  0  0  0  0  0  0  0  0  0
   63.8413   84.7929   33.9861 H   0  0  0  0  0  0  0  0  0  0  0  0
   61.8531   82.9157   33.8826 H   0  0  0  0  0  0  0  0  0  0  0  0
   61.5571   84.4872   33.1566 H   0  0  0  0  0  0  0  0  0  0  0  0
   60.1704   81.8847   33.1915 H   0  0  0  0  0  0  0  0  0  0  0  0
   55.8529   79.9615   26.8418 H   0  0  0  0  0  0  0  0  0  0  0  0
  1  2  1  0
  2  3  1  0
  2  4  1  0
  4  5  2  0
  4  6  1  0
  6  7  2  0
  7  8  1  0
  8  9  2  0
  9 10  1  0
 10 11  1  0
 11 12  2  0
 11 13  1  0
 13 14  1  0
 14 15  1  0
 15 16  2  0
 16 17  1  0
 17 18  1  0
 18 19  1  0
 19 20  1  0
 20 21  1  0
 21 22  1  0
 17 23  2  0
 23 24  1  0
 24 25  1  0
 10 26  2  0
 26  6  1  0
 24 14  2  0
 22 18  1  0
  1 27  1  0
  1 28  1  0
  1 29  1  0
  3 30  1  0
  3 31  1  0
  3 32  1  0
  7 33  1  0
  8 34  1  0
  9 35  1  0
 13 36  1  0
 15 37  1  0
 16 38  1  0
 19 39  1  0
 19 40  1  0
 20 41  1  0
 20 42  1  0
 21 43  1  0
 21 44  1  0
 22 45  1  0
 22 46  1  0
 23 47  1  0
 26 48  1  0
M  END
>  <meeko>  (1) 
{"is_sidechain": false}

>  <smiles>  (1) 
CN(C)C(=O)c1cccc(C(=O)Nc2ccc(N3CCCC3)cc2F)c1

>  <vina_score>  (1) 
-8.443

>  <job_id>  (1) 
7dcf937813ae4b9d

$$$$
