
     RDKit          3D

 60 62  0  0  0  0  0  0  0  0999 V2000
   53.6850   78.5620   24.2730 C   0  0  0  0  0  0  0  0  0  0  0  0
   53.5450   79.9790   24.8140 C   0  0  1  0  0  0  0  0  0  0  0  0
   52.1660   80.3490   24.7220 O   0  0  0  0  0  0  0  0  0  0  0  0
   54.0580   80.1340   26.2620 C   0  0  1  0  0  0  0  0  0  0  0  0
   53.5250   81.4200   26.8950 C   0  0  0  0  0  0  0  0  0  0  0  0
   53.5530   79.0550   27.0700 O   0  0  0  0  0  0  0  0  0  0  0  0
   54.4770   78.3370   27.7970 C   0  0  0  0  0  0  0  0  0  0  0  0
   55.6940   78.8680   28.0190 N   0  0  0  0  0  0  0  0  0  0  0  0
   56.5790   78.1300   28.7050 C   0  0  0  0  0  0  0  0  0  0  0  0
   57.8170   78.7300   28.9050 N   0  0  0  0  0  0  0  0  0  0  0  0
   58.2550   79.8410   29.6340 C   0  0  0  0  0  0  0  0  0  0  0  0
   58.9640   80.9120   29.0750 C   0  0  0  0  0  0  0  0  0  0  0  0
   59.3700   82.0020   29.8530 C   0  0  0  0  0  0  0  0  0  0  0  0
   59.0570   82.0340   31.2120 C   0  0  0  0  0  0  0  0  0  0  0  0
   59.5910   83.4200   32.2080 S   0  0  0  0  0  0  0  0  0  0  0  0
   58.3940   84.1960   32.4820 O   0  0  0  0  0  0  0  0  0  0  0  0
   60.7020   84.0240   31.4920 O   0  0  0  0  0  0  0  0  0  0  0  0
   60.1200   82.6730   33.5630 N   0  0  0  0  0  0  0  0  0  0  0  0
   61.3290   82.4770   33.8520 N   0  0  0  0  0  0  0  0  0  0  0  0
   62.3360   82.9180   32.9780 C   0  0  0  0  0  0  0  0  0  0  0  0
   62.9890   84.1370   33.2070 C   0  0  0  0  0  0  0  0  0  0  0  0
   64.0100   84.5680   32.3580 C   0  0  0  0  0  0  0  0  0  0  0  0
   64.3900   83.7620   31.2800 C   0  0  0  0  0  0  0  0  0  0  0  0
   65.6840   84.3300   30.2000 S   0  0  0  0  0  0  0  0  0  0  0  0
   66.2300   85.5340   30.7940 O   0  0  0  0  0  0  0  0  0  0  0  0
   66.5400   83.1940   29.8950 O   0  0  0  0  0  0  0  0  0  0  0  0
   64.8660   84.7250   28.8140 O   0  0  0  0  0  0  0  0  0  0  0  0
   65.6840   85.1070   27.6350 N   0  0  0  0  0  0  0  0  0  0  0  0
   63.7770   82.5270   31.0590 C   0  0  0  0  0  0  0  0  0  0  0  0
   62.7570   82.1070   31.9150 C   0  0  0  0  0  0  0  0  0  0  0  0
   58.3600   80.9800   31.8000 C   0  0  0  0  0  0  0  0  0  0  0  0
   57.9620   79.8970   31.0090 C   0  0  0  0  0  0  0  0  0  0  0  0
   56.2990   76.9030   29.1600 N   0  0  0  0  0  0  0  0  0  0  0  0
   55.0730   76.4050   28.9060 C   0  0  0  0  0  0  0  0  0  0  0  0
   54.1050   77.0860   28.2130 C   0  0  0  0  0  0  0  0  0  0  0  0
   52.7660   76.5150   27.9410 C   0  0  0  0  0  0  0  0  0  0  0  0
   52.6280   75.2400   28.3950 F   0  0  0  0  0  0  0  0  0  0  0  0
   52.4740   76.4590   26.6090 F   0  0  0  0  0  0  0  0  0  0  0  0
   51.7540   77.2320   28.5020 F   0  0  0  0  0  0  0  0  0  0  0  0
   53.7549   77.8543   25.1122 H   0  0  0  0  0  0  0  0  0  0  0  0
   52.8068   78.3159   23.6580 H   0  0  0  0  0  0  0  0  0  0  0  0
   54.5944   78.4925   23.6580 H   0  0  0  0  0  0  0  0  0  0  0  0
   54.1756   80.6465   24.2083 H   0  0  0  0  0  0  0  0  0  0  0  0
   51.7290   80.0120   25.5270 H   0  0  0  0  0  0  0  0  0  0  0  0
   55.1572   80.1436   26.2221 H   0  0  0  0  0  0  0  0  0  0  0  0
   53.5616   81.3318   27.9908 H   0  0  0  0  0  0  0  0  0  0  0  0
   54.1447   82.2705   26.5747 H   0  0  0  0  0  0  0  0  0  0  0  0
   52.4853   81.5828   26.5747 H   0  0  0  0  0  0  0  0  0  0  0  0
   58.5150   78.2300   28.3740 H   0  0  0  0  0  0  0  0  0  0  0  0
   59.2066   80.8959   28.0022 H   0  0  0  0  0  0  0  0  0  0  0  0
   59.9328   82.8290   29.3955 H   0  0  0  0  0  0  0  0  0  0  0  0
   62.6941   84.7602   34.0641 H   0  0  0  0  0  0  0  0  0  0  0  0
   64.5104   85.5315   32.5350 H   0  0  0  0  0  0  0  0  0  0  0  0
   66.0110   86.0480   27.8920 H   0  0  0  0  0  0  0  0  0  0  0  0
   66.4980   84.5050   27.7720 H   0  0  0  0  0  0  0  0  0  0  0  0
   64.0944   81.8915   30.2191 H   0  0  0  0  0  0  0  0  0  0  0  0
   62.2789   81.1296   31.7535 H   0  0  0  0  0  0  0  0  0  0  0  0
   58.1254   80.9995   32.8745 H   0  0  0  0  0  0  0  0  0  0  0  0
   57.4064   79.0690   31.4734 H   0  0  0  0  0  0  0  0  0  0  0  0
   54.8353   75.3963   29.2749 H   0  0  0  0  0  0  0  0  0  0  0  0
  1  2  1  0
  2  3  1  0
  2  4  1  0
  4  5  1  0
  4  6  1  0
  6  7  1  0
  7  8  2  0
  8  9  1  0
  9 10  1  0
 10 11  1  0
 11 12  1  0
 12 13  2  0
 13 14  1  0
 14 15  1  0
 15 16  2  0
 15 17  2  0
 15 18  1  0
 18 19  2  3
 19 20  1  0
 20 21  1  0
 21 22  2  0
 22 23  1  0
 23 24  1  0
 24 25  2  0
 24 26  2  0
 24 27  1  0
 27 28  1  0
 23 29  2  0
 29 30  1  0
 14 31  2  0
 31 32  1  0
  9 33  2  0
 33 34  1  0
 34 35  2  0
 35 36  1  0
 36 37  1  0
 36 38  1  0
 36 39  1  0
 35  7  1  0
 32 11  2  0
 30 20  2  0
  1 40  1  0
  1 41  1  0
  1 42  1  0
  2 43  1  6
  3 44  1  0
  4 45  1  6
  5 46  1  0
  5 47  1  0
  5 48  1  0
 10 49  1  0
 12 50  1  0
 13 51  1  0
 21 52  1  0
 22 53  1  0
 28 54  1  0
 28 55  1  0
 29 56  1  0
 30 57  1  0
 31 58  1  0
 32 59  1  0
 34 60  1  0
M  END
>  <meeko>  (1) 
{"is_sidechain": false}

>  <smiles>  (1) 
C[C@@H](O)[C@@H](C)Oc1nc(Nc2ccc(S(=O)(=O)N=Nc3ccc(S(=O)(=O)ON)cc3)cc2)ncc1C(F)(F)F

>  <vina_score>  (1) 
-8.999

>  <job_id>  (1) 
7e286ed04a0d6a3e

$$$$
