
     RDKit          3D

 75 80  0  0  0  0  0  0  0  0999 V2000
   57.1940   87.4450   37.4690 C   0  0  0  0  0  0  0  0  0  0  0  0
   58.4360   86.6110   37.7740 C   0  0  0  0  0  0  0  0  0  0  0  0
   59.5650   86.9640   36.8960 N   0  0  0  0  0  0  0  0  0  0  0  0
   59.5210   88.3890   36.5160 C   0  0  0  0  0  0  0  0  0  0  0  0
   60.4980   89.2370   37.3270 C   0  0  0  0  0  0  0  0  0  0  0  0
   59.6860   86.0700   35.7160 C   0  0  0  0  0  0  0  0  0  0  0  0
   59.3670   86.8530   34.4220 C   0  0  0  0  0  0  0  0  0  0  0  0
   60.0580   86.2660   33.1900 C   0  0  0  0  0  0  0  0  0  0  0  0
   60.1230   84.8080   33.3070 N   0  0  0  0  0  0  0  0  0  0  0  0
   59.9070   84.0030   32.1930 C   0  0  0  0  0  0  0  0  0  0  0  0
   60.8150   83.0190   31.7980 C   0  0  0  0  0  0  0  0  0  0  0  0
   60.5900   82.2300   30.6630 C   0  0  0  0  0  0  0  0  0  0  0  0
   59.4480   82.4270   29.8950 C   0  0  0  0  0  0  0  0  0  0  0  0
   59.2650   81.6090   28.7700 N   0  0  0  0  0  0  0  0  0  0  0  0
   58.2790   80.6380   28.5920 C   0  0  0  0  0  0  0  0  0  0  0  0
   58.5100   79.4850   29.2570 N   0  0  0  0  0  0  0  0  0  0  0  0
   57.6020   78.4840   29.1800 C   0  0  0  0  0  0  0  0  0  0  0  0
   56.4490   78.6600   28.4280 C   0  0  0  0  0  0  0  0  0  0  0  0
   55.2990   77.8960   28.1170 C   0  0  0  0  0  0  0  0  0  0  0  0
   54.4830   78.6680   27.3080 C   0  0  0  0  0  0  0  0  0  0  0  0
   55.1300   79.8790   27.1040 N   0  0  0  0  0  0  0  0  0  0  0  0
   56.3110   79.8870   27.8020 C   0  0  0  0  0  0  0  0  0  0  0  0
   57.1800   80.9020   27.8720 N   0  0  0  0  0  0  0  0  0  0  0  0
   54.5160   80.9770   26.3220 C   0  0  0  0  0  0  0  0  0  0  0  0
   53.7420   81.8990   27.3030 C   0  0  0  0  0  0  0  0  0  0  0  0
   53.3490   83.2320   26.6740 C   0  0  0  0  0  0  0  0  0  0  0  0
   54.5480   84.0170   26.1410 C   0  0  0  0  0  0  0  0  0  0  0  0
   55.8220   83.1860   26.0200 C   0  0  0  0  0  0  0  0  0  0  0  0
   55.5380   81.7890   25.4680 C   0  0  0  0  0  0  0  0  0  0  0  0
   53.5360   80.2980   25.3140 C   0  0  0  0  0  0  0  0  0  0  0  0
   52.6760   79.2990   25.9160 N   0  0  0  0  0  0  0  0  0  0  0  0
   53.1890   78.3460   26.7610 C   0  0  0  0  0  0  0  0  0  0  0  0
   52.5610   77.3230   27.0020 O   0  0  0  0  0  0  0  0  0  0  0  0
   58.5600   83.3790   30.2290 N   0  0  0  0  0  0  0  0  0  0  0  0
   58.8110   84.1290   31.3360 C   0  0  0  0  0  0  0  0  0  0  0  0
   60.9360   84.3000   34.4220 C   0  0  0  0  0  0  0  0  0  0  0  0
   61.0120   85.3070   35.5770 C   0  0  0  0  0  0  0  0  0  0  0  0
   56.7237   87.7608   38.4119 H   0  0  0  0  0  0  0  0  0  0  0  0
   57.4824   88.3332   36.8877 H   0  0  0  0  0  0  0  0  0  0  0  0
   56.4810   86.8419   36.8877 H   0  0  0  0  0  0  0  0  0  0  0  0
   58.7316   86.7828   38.8195 H   0  0  0  0  0  0  0  0  0  0  0  0
   58.1872   85.5537   37.6003 H   0  0  0  0  0  0  0  0  0  0  0  0
   59.7760   88.4785   35.4497 H   0  0  0  0  0  0  0  0  0  0  0  0
   58.5055   88.7596   36.7195 H   0  0  0  0  0  0  0  0  0  0  0  0
   60.3166   89.0796   38.4005 H   0  0  0  0  0  0  0  0  0  0  0  0
   61.5293   88.9429   37.0824 H   0  0  0  0  0  0  0  0  0  0  0  0
   60.3519   90.2995   37.0824 H   0  0  0  0  0  0  0  0  0  0  0  0
   58.9417   85.2786   35.8883 H   0  0  0  0  0  0  0  0  0  0  0  0
   58.2795   86.8333   34.2581 H   0  0  0  0  0  0  0  0  0  0  0  0
   59.7405   87.8791   34.5545 H   0  0  0  0  0  0  0  0  0  0  0  0
   59.4882   86.5352   32.2884 H   0  0  0  0  0  0  0  0  0  0  0  0
   61.0782   86.6710   33.1176 H   0  0  0  0  0  0  0  0  0  0  0  0
   61.7274   82.8598   32.3914 H   0  0  0  0  0  0  0  0  0  0  0  0
   61.3167   81.4545   30.3792 H   0  0  0  0  0  0  0  0  0  0  0  0
   59.3140   82.1280   27.9050 H   0  0  0  0  0  0  0  0  0  0  0  0
   57.7771   77.5364   29.7105 H   0  0  0  0  0  0  0  0  0  0  0  0
   55.0906   76.8710   28.4576 H   0  0  0  0  0  0  0  0  0  0  0  0
   52.8279   81.3797   27.6265 H   0  0  0  0  0  0  0  0  0  0  0  0
   54.4090   82.1159   28.1504 H   0  0  0  0  0  0  0  0  0  0  0  0
   52.6592   83.0363   25.8398 H   0  0  0  0  0  0  0  0  0  0  0  0
   52.8796   83.8415   27.4603 H   0  0  0  0  0  0  0  0  0  0  0  0
   54.2923   84.4072   25.1448 H   0  0  0  0  0  0  0  0  0  0  0  0
   54.7550   84.8181   26.8658 H   0  0  0  0  0  0  0  0  0  0  0  0
   56.5202   83.7010   25.3437 H   0  0  0  0  0  0  0  0  0  0  0  0
   56.2548   83.0751   27.0252 H   0  0  0  0  0  0  0  0  0  0  0  0
   55.1357   81.8925   24.4495 H   0  0  0  0  0  0  0  0  0  0  0  0
   56.4879   81.2347   25.4878 H   0  0  0  0  0  0  0  0  0  0  0  0
   52.9017   81.0783   24.8682 H   0  0  0  0  0  0  0  0  0  0  0  0
   54.1543   79.7795   24.5665 H   0  0  0  0  0  0  0  0  0  0  0  0
   51.8390   78.9960   25.4340 H   0  0  0  0  0  0  0  0  0  0  0  0
   58.0783   84.9122   31.5805 H   0  0  0  0  0  0  0  0  0  0  0  0
   60.4881   83.3662   34.7927 H   0  0  0  0  0  0  0  0  0  0  0  0
   61.9570   84.1285   34.0502 H   0  0  0  0  0  0  0  0  0  0  0  0
   61.2192   84.7683   36.5134 H   0  0  0  0  0  0  0  0  0  0  0  0
   61.8160   86.0278   35.3673 H   0  0  0  0  0  0  0  0  0  0  0  0
  1  2  1  0
  2  3  1  0
  3  4  1  0
  4  5  1  0
  3  6  1  0
  6  7  1  0
  7  8  1  0
  8  9  1  0
  9 10  1  0
 10 11  2  0
 11 12  1  0
 12 13  2  0
 13 14  1  0
 14 15  1  0
 15 16  2  0
 16 17  1  0
 17 18  2  0
 18 19  1  0
 19 20  2  0
 20 21  1  0
 21 22  1  0
 22 23  2  0
 21 24  1  0
 24 25  1  0
 25 26  1  0
 26 27  1  0
 27 28  1  0
 28 29  1  0
 24 30  1  0
 30 31  1  0
 31 32  1  0
 32 33  2  0
 13 34  1  0
 34 35  2  0
  9 36  1  0
 36 37  1  0
 37  6  1  0
 35 10  1  0
 23 15  1  0
 29 24  1  0
 22 18  1  0
 32 20  1  0
  1 38  1  0
  1 39  1  0
  1 40  1  0
  2 41  1  0
  2 42  1  0
  4 43  1  0
  4 44  1  0
  5 45  1  0
  5 46  1  0
  5 47  1  0
  6 48  1  0
  7 49  1  0
  7 50  1  0
  8 51  1  0
  8 52  1  0
 11 53  1  0
 12 54  1  0
 14 55  1  0
 17 56  1  0
 19 57  1  0
 25 58  1  0
 25 59  1  0
 26 60  1  0
 26 61  1  0
 27 62  1  0
 27 63  1  0
 28 64  1  0
 28 65  1  0
 29 66  1  0
 29 67  1  0
 30 68  1  0
 30 69  1  0
 31 70  1  0
 35 71  1  0
 36 72  1  0
 36 73  1  0
 37 74  1  0
 37 75  1  0
M  END
>  <meeko>  (1) 
{"is_sidechain": false}

>  <smiles>  (1) 
CCN(CC)C1CCN(c2ccc(Nc3ncc4cc5n(c4n3)C3(CCCCC3)CNC5=O)nc2)CC1

>  <vina_score>  (1) 
-7.834

>  <job_id>  (1) 
7e7584e64fe35e26

$$$$
