
     RDKit          3D

 44 46  0  0  0  0  0  0  0  0999 V2000
   63.1500   81.9400   32.9240 C   0  0  0  0  0  0  0  0  0  0  0  0
   62.1630   82.7110   32.0450 C   0  0  0  0  0  0  0  0  0  0  0  0
   62.8340   83.2040   30.7620 C   0  0  0  0  0  0  0  0  0  0  0  0
   60.9200   81.8950   31.7500 C   0  0  0  0  0  0  0  0  0  0  0  0
   60.1430   81.3440   32.7640 C   0  0  0  0  0  0  0  0  0  0  0  0
   59.0110   80.6070   32.4240 C   0  0  0  0  0  0  0  0  0  0  0  0
   58.6680   80.4330   31.0810 C   0  0  0  0  0  0  0  0  0  0  0  0
   59.5010   81.0110   30.1260 C   0  0  0  0  0  0  0  0  0  0  0  0
   60.6070   81.7320   30.4410 N   0  0  0  0  0  0  0  0  0  0  0  0
   59.1730   80.8920   28.6660 C   0  0  0  0  0  0  0  0  0  0  0  0
   58.3640   79.6290   28.3950 C   0  0  0  0  0  0  0  0  0  0  0  0
   57.1720   79.6180   29.2560 N   0  0  0  0  0  0  0  0  0  0  0  0
   56.1030   78.7800   28.8980 C   0  0  0  0  0  0  0  0  0  0  0  0
   55.2510   79.1600   27.8450 C   0  0  0  0  0  0  0  0  0  0  0  0
   54.1750   78.3610   27.4410 C   0  0  0  0  0  0  0  0  0  0  0  0
   53.9340   77.1580   28.0990 C   0  0  0  0  0  0  0  0  0  0  0  0
   52.5790   76.1390   27.5870 S   0  0  0  0  0  0  0  0  0  0  0  0
   53.1320   74.6070   28.0200 N   0  0  0  0  0  0  0  0  0  0  0  0
   51.4350   76.4470   28.4110 O   0  0  0  0  0  0  0  0  0  0  0  0
   52.5240   76.1360   26.1440 O   0  0  0  0  0  0  0  0  0  0  0  0
   54.7710   76.7400   29.1330 C   0  0  0  0  0  0  0  0  0  0  0  0
   55.8440   77.5500   29.5240 C   0  0  0  0  0  0  0  0  0  0  0  0
   57.4600   79.6110   30.7050 C   0  0  0  0  0  0  0  0  0  0  0  0
   62.9170   82.1220   33.9835 H   0  0  0  0  0  0  0  0  0  0  0  0
   63.0684   80.8641   32.7102 H   0  0  0  0  0  0  0  0  0  0  0  0
   64.1742   82.2797   32.7102 H   0  0  0  0  0  0  0  0  0  0  0  0
   61.8383   83.5972   32.6100 H   0  0  0  0  0  0  0  0  0  0  0  0
   63.6959   83.8373   31.0190 H   0  0  0  0  0  0  0  0  0  0  0  0
   63.1761   82.3409   30.1721 H   0  0  0  0  0  0  0  0  0  0  0  0
   62.1125   83.7884   30.1721 H   0  0  0  0  0  0  0  0  0  0  0  0
   60.4187   81.4883   33.8191 H   0  0  0  0  0  0  0  0  0  0  0  0
   58.3871   80.1619   33.2131 H   0  0  0  0  0  0  0  0  0  0  0  0
   58.5869   81.7695   28.3552 H   0  0  0  0  0  0  0  0  0  0  0  0
   60.1125   80.8383   28.0965 H   0  0  0  0  0  0  0  0  0  0  0  0
   58.0545   79.6109   27.3396 H   0  0  0  0  0  0  0  0  0  0  0  0
   58.9810   78.7443   28.6106 H   0  0  0  0  0  0  0  0  0  0  0  0
   55.4355   80.1114   27.3247 H   0  0  0  0  0  0  0  0  0  0  0  0
   53.5264   78.6804   26.6120 H   0  0  0  0  0  0  0  0  0  0  0  0
   54.1540   74.6200   28.0360 H   0  0  0  0  0  0  0  0  0  0  0  0
   52.7400   74.2710   28.8980 H   0  0  0  0  0  0  0  0  0  0  0  0
   54.5894   75.7799   29.6383 H   0  0  0  0  0  0  0  0  0  0  0  0
   56.4998   77.2149   30.3411 H   0  0  0  0  0  0  0  0  0  0  0  0
   56.5851   80.0142   31.2361 H   0  0  0  0  0  0  0  0  0  0  0  0
   57.6755   78.5700   30.9877 H   0  0  0  0  0  0  0  0  0  0  0  0
  1  2  1  0
  2  3  1  0
  2  4  1  0
  4  5  2  0
  5  6  1  0
  6  7  2  0
  7  8  1  0
  8  9  2  0
  8 10  1  0
 10 11  1  0
 11 12  1  0
 12 13  1  0
 13 14  1  0
 14 15  2  0
 15 16  1  0
 16 17  1  0
 17 18  1  0
 17 19  2  0
 17 20  2  0
 16 21  2  0
 21 22  1  0
 12 23  1  0
  9  4  1  0
 22 13  2  0
 23  7  1  0
  1 24  1  0
  1 25  1  0
  1 26  1  0
  2 27  1  0
  3 28  1  0
  3 29  1  0
  3 30  1  0
  5 31  1  0
  6 32  1  0
 10 33  1  0
 10 34  1  0
 11 35  1  0
 11 36  1  0
 14 37  1  0
 15 38  1  0
 18 39  1  0
 18 40  1  0
 21 41  1  0
 22 42  1  0
 23 43  1  0
 23 44  1  0
M  END
>  <meeko>  (1) 
{"is_sidechain": false}

>  <smiles>  (1) 
CC(C)c1ccc2c(n1)CCN(c1ccc(S(N)(=O)=O)cc1)C2

>  <vina_score>  (1) 
-7.456

>  <job_id>  (1) 
7f186c06b3760050

$$$$
