
     RDKit          3D

 60 64  0  0  0  0  0  0  0  0999 V2000
   60.8640   84.4550   35.0200 C   0  0  0  0  0  0  0  0  0  0  0  0
   61.3540   84.1160   33.6330 C   0  0  0  0  0  0  0  0  0  0  0  0
   62.3560   84.6690   33.1800 O   0  0  0  0  0  0  0  0  0  0  0  0
   60.6160   83.1830   32.9140 N   0  0  0  0  0  0  0  0  0  0  0  0
   59.6730   82.3380   33.6450 C   0  0  0  0  0  0  0  0  0  0  0  0
   59.6290   80.9320   33.0620 C   0  0  0  0  0  0  0  0  0  0  0  0
   59.3730   80.9760   31.5820 C   0  0  0  0  0  0  0  0  0  0  0  0
   58.7830   79.8830   31.0330 N   0  0  0  0  0  0  0  0  0  0  0  0
   58.5550   79.8570   29.7000 C   0  0  0  0  0  0  0  0  0  0  0  0
   57.9460   78.7060   29.2410 N   0  0  0  0  0  0  0  0  0  0  0  0
   56.6460   78.3380   28.9530 C   0  0  0  0  0  0  0  0  0  0  0  0
   56.0600   77.5280   29.8500 N   0  0  0  0  0  0  0  0  0  0  0  0
   54.7900   77.1490   29.6040 C   0  0  0  0  0  0  0  0  0  0  0  0
   54.0830   77.5430   28.4980 C   0  0  0  0  0  0  0  0  0  0  0  0
   52.8180   77.1390   28.3220 F   0  0  0  0  0  0  0  0  0  0  0  0
   54.7420   78.3750   27.6170 C   0  0  0  0  0  0  0  0  0  0  0  0
   54.1370   78.9030   26.3740 C   0  0  0  0  0  0  0  0  0  0  0  0
   53.8280   78.0300   25.3150 C   0  0  0  0  0  0  0  0  0  0  0  0
   53.2470   78.4890   24.1310 C   0  0  0  0  0  0  0  0  0  0  0  0
   52.9760   77.6080   23.1570 F   0  0  0  0  0  0  0  0  0  0  0  0
   52.9570   79.8530   23.9760 C   0  0  0  0  0  0  0  0  0  0  0  0
   52.3960   80.5270   22.9220 N   0  0  0  0  0  0  0  0  0  0  0  0
   52.3400   81.7910   23.2830 C   0  0  0  0  0  0  0  0  0  0  0  0
   51.7980   82.8830   22.4350 C   0  0  0  0  0  0  0  0  0  0  0  0
   52.8530   81.9660   24.5560 N   0  0  0  0  0  0  0  0  0  0  0  0
   52.9460   83.2420   25.2620 C   0  0  0  0  0  0  0  0  0  0  0  0
   52.1850   83.2320   26.5890 C   0  0  0  0  0  0  0  0  0  0  0  0
   54.3900   83.7170   25.4270 C   0  0  0  0  0  0  0  0  0  0  0  0
   53.2560   80.7270   25.0190 C   0  0  0  0  0  0  0  0  0  0  0  0
   53.8380   80.2770   26.2200 C   0  0  0  0  0  0  0  0  0  0  0  0
   56.0200   78.7740   27.8470 N   0  0  0  0  0  0  0  0  0  0  0  0
   58.9240   80.9260   28.8960 C   0  0  0  0  0  0  0  0  0  0  0  0
   59.5340   82.0430   29.4650 C   0  0  0  0  0  0  0  0  0  0  0  0
   59.7730   82.0810   30.8370 C   0  0  0  0  0  0  0  0  0  0  0  0
   60.4190   83.2820   31.4690 C   0  0  0  0  0  0  0  0  0  0  0  0
   61.5286   83.9952   35.7662 H   0  0  0  0  0  0  0  0  0  0  0  0
   60.8642   85.5470   35.1522 H   0  0  0  0  0  0  0  0  0  0  0  0
   59.8422   84.0698   35.1522 H   0  0  0  0  0  0  0  0  0  0  0  0
   59.9846   82.2803   34.6984 H   0  0  0  0  0  0  0  0  0  0  0  0
   58.6699   82.7817   33.5616 H   0  0  0  0  0  0  0  0  0  0  0  0
   60.5926   80.4347   33.2467 H   0  0  0  0  0  0  0  0  0  0  0  0
   58.8122   80.3754   33.5448 H   0  0  0  0  0  0  0  0  0  0  0  0
   58.5990   77.9500   29.1050 H   0  0  0  0  0  0  0  0  0  0  0  0
   54.2944   76.4878   30.3301 H   0  0  0  0  0  0  0  0  0  0  0  0
   54.0498   76.9580   25.4224 H   0  0  0  0  0  0  0  0  0  0  0  0
   51.4009   83.6831   23.0770 H   0  0  0  0  0  0  0  0  0  0  0  0
   52.6003   83.2867   21.7999 H   0  0  0  0  0  0  0  0  0  0  0  0
   50.9913   82.4881   21.7999 H   0  0  0  0  0  0  0  0  0  0  0  0
   52.4467   83.9833   24.6208 H   0  0  0  0  0  0  0  0  0  0  0  0
   52.9022   83.2414   27.4230 H   0  0  0  0  0  0  0  0  0  0  0  0
   51.5410   84.1218   26.6491 H   0  0  0  0  0  0  0  0  0  0  0  0
   51.5646   82.3256   26.6491 H   0  0  0  0  0  0  0  0  0  0  0  0
   54.6300   83.7959   26.4976 H   0  0  0  0  0  0  0  0  0  0  0  0
   55.0701   82.9952   24.9510 H   0  0  0  0  0  0  0  0  0  0  0  0
   54.5088   84.7016   24.9510 H   0  0  0  0  0  0  0  0  0  0  0  0
   54.0580   80.9873   27.0306 H   0  0  0  0  0  0  0  0  0  0  0  0
   58.7358   80.8922   27.8128 H   0  0  0  0  0  0  0  0  0  0  0  0
   59.8263   82.8934   28.8314 H   0  0  0  0  0  0  0  0  0  0  0  0
   61.4026   83.4286   30.9988 H   0  0  0  0  0  0  0  0  0  0  0  0
   59.7307   84.1247   31.3074 H   0  0  0  0  0  0  0  0  0  0  0  0
  1  2  1  0
  2  3  2  0
  2  4  1  0
  4  5  1  0
  5  6  1  0
  6  7  1  0
  7  8  1  0
  8  9  2  0
  9 10  1  0
 10 11  1  0
 11 12  2  0
 12 13  1  0
 13 14  2  0
 14 15  1  0
 14 16  1  0
 16 17  1  0
 17 18  2  0
 18 19  1  0
 19 20  1  0
 19 21  2  0
 21 22  1  0
 22 23  2  0
 23 24  1  0
 23 25  1  0
 25 26  1  0
 26 27  1  0
 26 28  1  0
 25 29  1  0
 29 30  2  0
 16 31  2  0
  9 32  1  0
 32 33  2  0
 33 34  1  0
 34 35  1  0
 35  4  1  0
 34  7  2  0
 31 11  1  0
 30 17  1  0
 29 21  1  0
  1 36  1  0
  1 37  1  0
  1 38  1  0
  5 39  1  0
  5 40  1  0
  6 41  1  0
  6 42  1  0
 10 43  1  0
 13 44  1  0
 18 45  1  0
 24 46  1  0
 24 47  1  0
 24 48  1  0
 26 49  1  0
 27 50  1  0
 27 51  1  0
 27 52  1  0
 28 53  1  0
 28 54  1  0
 28 55  1  0
 30 56  1  0
 32 57  1  0
 33 58  1  0
 35 59  1  0
 35 60  1  0
M  END
>  <meeko>  (1) 
{"is_sidechain": false}

>  <smiles>  (1) 
CC(=O)N1CCc2nc(Nc3ncc(F)c(-c4cc(F)c5nc(C)n(C(C)C)c5c4)n3)ccc2C1

>  <vina_score>  (1) 
-8.842

>  <job_id>  (1) 
7f2fcf16ad5060e6

$$$$
