
     RDKit          3D

 47 49  0  0  0  0  0  0  0  0999 V2000
   53.0360   81.6210   23.9190 C   0  0  0  0  0  0  0  0  0  0  0  0
   53.3010   80.4040   24.7300 C   0  0  0  0  0  0  0  0  0  0  0  0
   52.9350   79.1950   24.3550 N   0  0  0  0  0  0  0  0  0  0  0  0
   53.3830   78.3500   25.3250 C   0  0  0  0  0  0  0  0  0  0  0  0
   54.0330   79.0330   26.3360 C   0  0  0  0  0  0  0  0  0  0  0  0
   54.6740   78.5000   27.5310 C   0  0  0  0  0  0  0  0  0  0  0  0
   54.0100   77.6570   28.3900 C   0  0  0  0  0  0  0  0  0  0  0  0
   54.7430   77.2200   29.4610 C   0  0  0  0  0  0  0  0  0  0  0  0
   56.0240   77.5670   29.6720 N   0  0  0  0  0  0  0  0  0  0  0  0
   56.6030   78.3770   28.7750 C   0  0  0  0  0  0  0  0  0  0  0  0
   57.9280   78.7880   28.8940 N   0  0  0  0  0  0  0  0  0  0  0  0
   58.5620   79.8470   29.5530 C   0  0  0  0  0  0  0  0  0  0  0  0
   58.5560   79.8580   30.9600 C   0  0  0  0  0  0  0  0  0  0  0  0
   59.1950   80.8660   31.6870 C   0  0  0  0  0  0  0  0  0  0  0  0
   59.8690   81.8780   31.0040 C   0  0  0  0  0  0  0  0  0  0  0  0
   60.6820   83.1700   31.9100 S   0  0  0  0  0  0  0  0  0  0  0  0
   60.0580   82.9650   33.5570 C   0  0  0  0  0  0  0  0  0  0  0  0
   62.1010   82.8690   31.9220 O   0  0  0  0  0  0  0  0  0  0  0  0
   60.1950   84.4380   31.4000 O   0  0  0  0  0  0  0  0  0  0  0  0
   59.8860   81.8970   29.6100 C   0  0  0  0  0  0  0  0  0  0  0  0
   59.2430   80.8790   28.8960 C   0  0  0  0  0  0  0  0  0  0  0  0
   55.9590   78.8660   27.7040 N   0  0  0  0  0  0  0  0  0  0  0  0
   53.9390   80.3690   25.9580 N   0  0  0  0  0  0  0  0  0  0  0  0
   54.4110   81.5050   26.7530 C   0  0  0  0  0  0  0  0  0  0  0  0
   53.3100   82.4820   27.1730 C   0  0  0  0  0  0  0  0  0  0  0  0
   55.5810   82.2250   26.0830 C   0  0  0  0  0  0  0  0  0  0  0  0
   52.8502   82.4742   24.5880 H   0  0  0  0  0  0  0  0  0  0  0  0
   53.9084   81.8359   23.2844 H   0  0  0  0  0  0  0  0  0  0  0  0
   52.1532   81.4537   23.2844 H   0  0  0  0  0  0  0  0  0  0  0  0
   53.2446   77.2589   25.3062 H   0  0  0  0  0  0  0  0  0  0  0  0
   52.9646   77.3550   28.2287 H   0  0  0  0  0  0  0  0  0  0  0  0
   54.2580   76.5501   30.1863 H   0  0  0  0  0  0  0  0  0  0  0  0
   58.5230   78.0660   28.5150 H   0  0  0  0  0  0  0  0  0  0  0  0
   58.0357   79.0537   31.5008 H   0  0  0  0  0  0  0  0  0  0  0  0
   59.1667   80.8613   32.7866 H   0  0  0  0  0  0  0  0  0  0  0  0
   60.8442   83.2233   34.2817 H   0  0  0  0  0  0  0  0  0  0  0  0
   59.1910   83.6255   33.7055 H   0  0  0  0  0  0  0  0  0  0  0  0
   59.7517   81.9190   33.7055 H   0  0  0  0  0  0  0  0  0  0  0  0
   60.4018   82.7075   29.0742 H   0  0  0  0  0  0  0  0  0  0  0  0
   59.2734   80.8900   27.7965 H   0  0  0  0  0  0  0  0  0  0  0  0
   54.7773   81.0621   27.6909 H   0  0  0  0  0  0  0  0  0  0  0  0
   53.2591   82.5272   28.2709 H   0  0  0  0  0  0  0  0  0  0  0  0
   53.5360   83.4823   26.7750 H   0  0  0  0  0  0  0  0  0  0  0  0
   52.3437   82.1387   26.7750 H   0  0  0  0  0  0  0  0  0  0  0  0
   56.2488   82.6360   26.8544 H   0  0  0  0  0  0  0  0  0  0  0  0
   56.1388   81.5137   25.4562 H   0  0  0  0  0  0  0  0  0  0  0  0
   55.1974   83.0435   25.4562 H   0  0  0  0  0  0  0  0  0  0  0  0
  1  2  1  0
  2  3  2  0
  3  4  1  0
  4  5  2  0
  5  6  1  0
  6  7  1  0
  7  8  2  0
  8  9  1  0
  9 10  2  0
 10 11  1  0
 11 12  1  0
 12 13  1  0
 13 14  2  0
 14 15  1  0
 15 16  1  0
 16 17  1  0
 16 18  2  0
 16 19  2  0
 15 20  2  0
 20 21  1  0
 10 22  1  0
  5 23  1  0
 23 24  1  0
 24 25  1  0
 24 26  1  0
 23  2  1  0
 22  6  2  0
 21 12  2  0
  1 27  1  0
  1 28  1  0
  1 29  1  0
  4 30  1  0
  7 31  1  0
  8 32  1  0
 11 33  1  0
 13 34  1  0
 14 35  1  0
 17 36  1  0
 17 37  1  0
 17 38  1  0
 20 39  1  0
 21 40  1  0
 24 41  1  0
 25 42  1  0
 25 43  1  0
 25 44  1  0
 26 45  1  0
 26 46  1  0
 26 47  1  0
M  END
>  <meeko>  (1) 
{"is_sidechain": false}

>  <smiles>  (1) 
Cc1ncc(-c2ccnc(Nc3ccc(S(C)(=O)=O)cc3)n2)n1C(C)C

>  <vina_score>  (1) 
-8.698

>  <job_id>  (1) 
7f5ca746b44496ab

$$$$
