
     RDKit          3D

 45 47  0  0  0  0  0  0  0  0999 V2000
   52.1850   74.9840   26.1440 C   0  0  0  0  0  0  0  0  0  0  0  0
   51.8470   75.9170   27.2940 C   0  0  0  0  0  0  0  0  0  0  0  0
   52.7860   77.1110   27.3750 C   0  0  0  0  0  0  0  0  0  0  0  0
   52.5700   78.1550   26.7710 O   0  0  0  0  0  0  0  0  0  0  0  0
   53.8690   76.8420   28.1980 N   0  0  0  0  0  0  0  0  0  0  0  0
   54.9430   77.6980   28.5150 C   0  0  0  0  0  0  0  0  0  0  0  0
   55.4220   78.6970   27.6710 C   0  0  0  0  0  0  0  0  0  0  0  0
   56.4960   79.5080   28.0660 C   0  0  0  0  0  0  0  0  0  0  0  0
   57.1190   79.3400   29.3120 C   0  0  0  0  0  0  0  0  0  0  0  0
   58.2440   80.1940   29.7220 C   0  0  0  0  0  0  0  0  0  0  0  0
   58.9880   80.9180   28.7840 C   0  0  0  0  0  0  0  0  0  0  0  0
   60.0590   81.7330   29.1790 C   0  0  0  0  0  0  0  0  0  0  0  0
   60.4420   81.8640   30.5230 C   0  0  0  0  0  0  0  0  0  0  0  0
   61.4980   82.6690   30.9060 N   0  0  0  0  0  0  0  0  0  0  0  0
   62.8720   82.1540   31.0210 C   0  0  0  0  0  0  0  0  0  0  0  0
   63.6580   82.9680   32.0640 C   0  0  0  0  0  0  0  0  0  0  0  0
   63.7440   84.3690   31.7700 O   0  0  0  0  0  0  0  0  0  0  0  0
   62.6240   84.8600   31.0210 C   0  0  0  0  0  0  0  0  0  0  0  0
   61.3170   84.0860   31.2620 C   0  0  0  0  0  0  0  0  0  0  0  0
   59.6870   81.1340   31.4520 C   0  0  0  0  0  0  0  0  0  0  0  0
   58.6140   80.3170   31.0660 C   0  0  0  0  0  0  0  0  0  0  0  0
   56.6290   78.3310   30.1530 C   0  0  0  0  0  0  0  0  0  0  0  0
   55.5550   77.5210   29.7610 C   0  0  0  0  0  0  0  0  0  0  0  0
   52.5340   74.0206   26.5439 H   0  0  0  0  0  0  0  0  0  0  0  0
   51.2884   74.8220   25.5276 H   0  0  0  0  0  0  0  0  0  0  0  0
   52.9773   75.4338   25.5276 H   0  0  0  0  0  0  0  0  0  0  0  0
   50.8195   76.2856   27.1581 H   0  0  0  0  0  0  0  0  0  0  0  0
   51.9534   75.3460   28.2281 H   0  0  0  0  0  0  0  0  0  0  0  0
   53.8940   75.9250   28.6270 H   0  0  0  0  0  0  0  0  0  0  0  0
   54.9545   78.8511   26.6873 H   0  0  0  0  0  0  0  0  0  0  0  0
   56.8575   80.2923   27.3847 H   0  0  0  0  0  0  0  0  0  0  0  0
   58.7283   80.8468   27.7175 H   0  0  0  0  0  0  0  0  0  0  0  0
   60.6171   82.2877   28.4103 H   0  0  0  0  0  0  0  0  0  0  0  0
   62.8401   81.0993   31.3318 H   0  0  0  0  0  0  0  0  0  0  0  0
   63.3718   82.2425   30.0451 H   0  0  0  0  0  0  0  0  0  0  0  0
   63.1630   82.8495   33.0392 H   0  0  0  0  0  0  0  0  0  0  0  0
   64.6870   82.5793   32.0597 H   0  0  0  0  0  0  0  0  0  0  0  0
   62.4583   85.9117   31.2976 H   0  0  0  0  0  0  0  0  0  0  0  0
   62.8749   84.7338   29.9575 H   0  0  0  0  0  0  0  0  0  0  0  0
   61.0389   84.1622   32.3235 H   0  0  0  0  0  0  0  0  0  0  0  0
   60.5216   84.5168   30.6361 H   0  0  0  0  0  0  0  0  0  0  0  0
   59.9447   81.2043   32.5191 H   0  0  0  0  0  0  0  0  0  0  0  0
   58.0534   79.7631   31.8335 H   0  0  0  0  0  0  0  0  0  0  0  0
   57.0953   78.1726   31.1366 H   0  0  0  0  0  0  0  0  0  0  0  0
   55.1888   76.7372   30.4403 H   0  0  0  0  0  0  0  0  0  0  0  0
  1  2  1  0
  2  3  1  0
  3  4  2  0
  3  5  1  0
  5  6  1  0
  6  7  1  0
  7  8  2  0
  8  9  1  0
  9 10  1  0
 10 11  1  0
 11 12  2  0
 12 13  1  0
 13 14  1  0
 14 15  1  0
 15 16  1  0
 16 17  1  0
 17 18  1  0
 18 19  1  0
 13 20  2  0
 20 21  1  0
  9 22  2  0
 22 23  1  0
 23  6  2  0
 21 10  2  0
 19 14  1  0
  1 24  1  0
  1 25  1  0
  1 26  1  0
  2 27  1  0
  2 28  1  0
  5 29  1  0
  7 30  1  0
  8 31  1  0
 11 32  1  0
 12 33  1  0
 15 34  1  0
 15 35  1  0
 16 36  1  0
 16 37  1  0
 18 38  1  0
 18 39  1  0
 19 40  1  0
 19 41  1  0
 20 42  1  0
 21 43  1  0
 22 44  1  0
 23 45  1  0
M  END
>  <meeko>  (1) 
{"is_sidechain": false}

>  <smiles>  (1) 
CCC(=O)Nc1ccc(-c2ccc(N3CCOCC3)cc2)cc1

>  <vina_score>  (1) 
-7.557

>  <job_id>  (1) 
7f6db463b24b4d58

$$$$
