
     RDKit          3D

 41 43  0  0  0  0  0  0  0  0999 V2000
   50.1930   80.6070   19.8160 O   0  0  0  0  0  0  0  0  0  0  0  0
   50.8710   80.9810   20.9390 C   0  0  0  0  0  0  0  0  0  0  0  0
   50.2580   80.9840   22.1860 C   0  0  0  0  0  0  0  0  0  0  0  0
   50.9910   81.3750   23.3090 C   0  0  0  0  0  0  0  0  0  0  0  0
   52.3340   81.7670   23.1870 C   0  0  0  0  0  0  0  0  0  0  0  0
   53.1270   82.1800   24.4100 C   0  0  0  0  0  0  0  0  0  0  0  0
   53.9920   81.1120   24.9390 N   0  0  0  0  0  0  0  0  0  0  0  0
   54.2210   81.2590   26.3840 C   0  0  0  0  0  0  0  0  0  0  0  0
   53.3100   80.3940   27.2530 C   0  0  0  0  0  0  0  0  0  0  0  0
   53.4170   78.8970   26.9010 C   0  0  0  0  0  0  0  0  0  0  0  0
   54.1610   78.0920   27.9540 C   0  0  0  0  0  0  0  0  0  0  0  0
   55.3140   78.6250   28.5530 C   0  0  0  0  0  0  0  0  0  0  0  0
   56.0160   77.9010   29.5200 C   0  0  0  0  0  0  0  0  0  0  0  0
   55.5760   76.6360   29.9010 C   0  0  0  0  0  0  0  0  0  0  0  0
   54.4350   76.0940   29.3170 C   0  0  0  0  0  0  0  0  0  0  0  0
   53.7310   76.8160   28.3500 C   0  0  0  0  0  0  0  0  0  0  0  0
   53.9990   78.6790   25.4940 C   0  0  0  0  0  0  0  0  0  0  0  0
   53.5090   79.7750   24.5500 C   0  0  0  0  0  0  0  0  0  0  0  0
   52.9330   81.7520   21.9190 C   0  0  0  0  0  0  0  0  0  0  0  0
   52.2000   81.3610   20.7960 C   0  0  0  0  0  0  0  0  0  0  0  0
   49.8320   81.4050   19.3970 H   0  0  0  0  0  0  0  0  0  0  0  0
   49.2054   80.6813   22.2879 H   0  0  0  0  0  0  0  0  0  0  0  0
   50.5114   81.3759   24.2989 H   0  0  0  0  0  0  0  0  0  0  0  0
   53.7595   83.0387   24.1409 H   0  0  0  0  0  0  0  0  0  0  0  0
   52.4002   82.4270   25.1979 H   0  0  0  0  0  0  0  0  0  0  0  0
   55.2644   80.9841   26.5977 H   0  0  0  0  0  0  0  0  0  0  0  0
   53.9964   82.3062   26.6349 H   0  0  0  0  0  0  0  0  0  0  0  0
   53.5923   80.5308   28.3073 H   0  0  0  0  0  0  0  0  0  0  0  0
   52.2720   80.7096   27.0716 H   0  0  0  0  0  0  0  0  0  0  0  0
   52.3872   78.5104   26.8928 H   0  0  0  0  0  0  0  0  0  0  0  0
   55.6683   79.6236   28.2576 H   0  0  0  0  0  0  0  0  0  0  0  0
   56.9175   78.3309   29.9810 H   0  0  0  0  0  0  0  0  0  0  0  0
   56.1292   76.0662   30.6621 H   0  0  0  0  0  0  0  0  0  0  0  0
   54.0866   75.0948   29.6174 H   0  0  0  0  0  0  0  0  0  0  0  0
   52.8300   76.3797   27.8941 H   0  0  0  0  0  0  0  0  0  0  0  0
   55.0974   78.7072   25.5458 H   0  0  0  0  0  0  0  0  0  0  0  0
   53.6682   77.7011   25.1142 H   0  0  0  0  0  0  0  0  0  0  0  0
   53.8675   79.5521   23.5343 H   0  0  0  0  0  0  0  0  0  0  0  0
   52.4101   79.7898   24.5966 H   0  0  0  0  0  0  0  0  0  0  0  0
   53.9861   82.0498   21.8081 H   0  0  0  0  0  0  0  0  0  0  0  0
   52.6727   81.3539   19.8028 H   0  0  0  0  0  0  0  0  0  0  0  0
  1  2  1  0
  2  3  1  0
  3  4  2  0
  4  5  1  0
  5  6  1  0
  6  7  1  0
  7  8  1  0
  8  9  1  0
  9 10  1  0
 10 11  1  0
 11 12  2  0
 12 13  1  0
 13 14  2  0
 14 15  1  0
 15 16  2  0
 10 17  1  0
 17 18  1  0
  5 19  2  0
 19 20  1  0
 20  2  2  0
 18  7  1  0
 16 11  1  0
  1 21  1  0
  3 22  1  0
  4 23  1  0
  6 24  1  0
  6 25  1  0
  8 26  1  0
  8 27  1  0
  9 28  1  0
  9 29  1  0
 10 30  1  0
 12 31  1  0
 13 32  1  0
 14 33  1  0
 15 34  1  0
 16 35  1  0
 17 36  1  0
 17 37  1  0
 18 38  1  0
 18 39  1  0
 19 40  1  0
 20 41  1  0
M  END
>  <meeko>  (1) 
{"is_sidechain": false}

>  <smiles>  (1) 
Oc1ccc(CN2CCC(c3ccccc3)CC2)cc1

>  <vina_score>  (1) 
-7.715

>  <job_id>  (1) 
7f8d13d4ac45ce91

$$$$
