
     RDKit          3D

 33 34  0  0  0  0  0  0  0  0999 V2000
   58.9350   83.2570   33.2700 N   0  0  0  0  0  0  0  0  0  0  0  0
   60.1140   83.1950   32.0770 S   0  0  0  0  0  0  0  0  0  0  0  0
   60.0510   84.4640   31.3890 O   0  0  0  0  0  0  0  0  0  0  0  0
   61.3150   82.7240   32.7250 O   0  0  0  0  0  0  0  0  0  0  0  0
   59.4920   81.9260   31.0130 C   0  0  0  0  0  0  0  0  0  0  0  0
   58.7540   80.8700   31.5580 C   0  0  0  0  0  0  0  0  0  0  0  0
   58.2850   79.8550   30.7230 C   0  0  0  0  0  0  0  0  0  0  0  0
   58.5780   79.8890   29.3540 C   0  0  0  0  0  0  0  0  0  0  0  0
   58.1180   78.9360   28.4730 O   0  0  0  0  0  0  0  0  0  0  0  0
   56.7650   78.6840   28.4690 C   0  0  0  0  0  0  0  0  0  0  0  0
   56.1960   77.6320   29.1950 C   0  0  0  0  0  0  0  0  0  0  0  0
   54.8190   77.4040   29.1300 C   0  0  0  0  0  0  0  0  0  0  0  0
   54.0150   78.2110   28.3260 C   0  0  0  0  0  0  0  0  0  0  0  0
   54.6010   79.2370   27.5780 C   0  0  0  0  0  0  0  0  0  0  0  0
   53.5950   80.2690   26.5480 S   0  0  0  0  0  0  0  0  0  0  0  0
   54.6580   80.6360   25.2950 N   0  0  0  0  0  0  0  0  0  0  0  0
   53.3100   81.4880   27.2670 O   0  0  0  0  0  0  0  0  0  0  0  0
   52.5600   79.4560   25.9510 O   0  0  0  0  0  0  0  0  0  0  0  0
   55.9750   79.4820   27.6450 C   0  0  0  0  0  0  0  0  0  0  0  0
   59.3060   80.9510   28.8140 C   0  0  0  0  0  0  0  0  0  0  0  0
   59.7770   81.9680   29.6450 C   0  0  0  0  0  0  0  0  0  0  0  0
   58.7470   82.3170   33.6200 H   0  0  0  0  0  0  0  0  0  0  0  0
   58.1090   83.7390   32.9160 H   0  0  0  0  0  0  0  0  0  0  0  0
   58.5448   80.8399   32.6375 H   0  0  0  0  0  0  0  0  0  0  0  0
   57.6870   79.0307   31.1389 H   0  0  0  0  0  0  0  0  0  0  0  0
   56.8323   76.9848   29.8166 H   0  0  0  0  0  0  0  0  0  0  0  0
   54.3690   76.5873   29.7135 H   0  0  0  0  0  0  0  0  0  0  0  0
   52.9290   78.0420   28.2805 H   0  0  0  0  0  0  0  0  0  0  0  0
   54.5160   81.5650   24.9010 H   0  0  0  0  0  0  0  0  0  0  0  0
   55.6160   80.5050   25.6270 H   0  0  0  0  0  0  0  0  0  0  0  0
   56.4263   80.2936   27.0554 H   0  0  0  0  0  0  0  0  0  0  0  0
   59.5082   80.9859   27.7333 H   0  0  0  0  0  0  0  0  0  0  0  0
   60.3679   82.7963   29.2271 H   0  0  0  0  0  0  0  0  0  0  0  0
  1  2  1  0
  2  3  2  0
  2  4  2  0
  2  5  1  0
  5  6  1  0
  6  7  2  0
  7  8  1  0
  8  9  1  0
  9 10  1  0
 10 11  1  0
 11 12  2  0
 12 13  1  0
 13 14  2  0
 14 15  1  0
 15 16  1  0
 15 17  2  0
 15 18  2  0
 14 19  1  0
  8 20  2  0
 20 21  1  0
 21  5  2  0
 19 10  2  0
  1 22  1  0
  1 23  1  0
  6 24  1  0
  7 25  1  0
 11 26  1  0
 12 27  1  0
 13 28  1  0
 16 29  1  0
 16 30  1  0
 19 31  1  0
 20 32  1  0
 21 33  1  0
M  END
>  <meeko>  (1) 
{"is_sidechain": false}

>  <smiles>  (1) 
NS(=O)(=O)c1ccc(Oc2cccc(S(N)(=O)=O)c2)cc1

>  <vina_score>  (1) 
-7.785

>  <job_id>  (1) 
7fe0698f6ce8b040

$$$$
