
     RDKit          3D

 60 62  0  0  0  0  0  0  0  0999 V2000
   63.7870   82.1070   31.0210 C   0  0  0  0  0  0  0  0  0  0  0  0
   64.6470   82.4890   32.5660 S   0  0  0  0  0  4  0  0  0  0  0  0
   63.2660   82.0330   33.6290 C   0  0  0  0  0  0  0  0  0  0  0  0
   63.1110   80.5990   34.0220 C   0  0  0  0  0  0  0  0  0  0  0  0
   62.3640   83.1020   34.1630 C   0  0  0  0  0  0  0  0  0  0  0  0
   60.6930   82.4090   34.3280 S   0  0  0  0  0  0  0  0  0  0  0  0
   59.7860   83.5030   33.1920 C   0  0  0  0  0  0  0  0  0  0  0  0
   60.1180   83.2810   31.7250 C   0  0  0  0  0  0  0  0  0  0  0  0
   60.8170   84.0430   31.0590 O   0  0  0  0  0  0  0  0  0  0  0  0
   59.5160   82.0960   31.0420 C   0  0  0  0  0  0  0  0  0  0  0  0
   59.7390   81.9310   29.6720 C   0  0  0  0  0  0  0  0  0  0  0  0
   59.1940   80.8360   28.9860 C   0  0  0  0  0  0  0  0  0  0  0  0
   58.4150   79.8820   29.6460 C   0  0  0  0  0  0  0  0  0  0  0  0
   57.8340   78.7760   29.0180 N   0  0  0  0  0  0  0  0  0  0  0  0
   56.5260   78.3330   28.8540 C   0  0  0  0  0  0  0  0  0  0  0  0
   55.9350   77.5090   29.7350 N   0  0  0  0  0  0  0  0  0  0  0  0
   54.6560   77.1520   29.4930 C   0  0  0  0  0  0  0  0  0  0  0  0
   53.9510   77.5790   28.4020 C   0  0  0  0  0  0  0  0  0  0  0  0
   52.6830   77.2000   28.2040 F   0  0  0  0  0  0  0  0  0  0  0  0
   54.6360   78.4030   27.5370 C   0  0  0  0  0  0  0  0  0  0  0  0
   54.0140   78.9670   26.3470 C   0  0  0  0  0  0  0  0  0  0  0  0
   53.4480   78.2900   25.2830 C   0  0  0  0  0  0  0  0  0  0  0  0
   52.9340   79.1440   24.3550 N   0  0  0  0  0  0  0  0  0  0  0  0
   53.1750   80.3540   24.8110 C   0  0  0  0  0  0  0  0  0  0  0  0
   52.7640   81.6060   24.1230 C   0  0  0  0  0  0  0  0  0  0  0  0
   53.8710   80.3050   26.0130 N   0  0  0  0  0  0  0  0  0  0  0  0
   54.3790   81.4890   26.7070 C   0  0  0  0  0  0  0  0  0  0  0  0
   53.3100   82.5140   27.0970 C   0  0  0  0  0  0  0  0  0  0  0  0
   55.5630   82.1290   25.9830 C   0  0  0  0  0  0  0  0  0  0  0  0
   55.9110   78.7920   27.7500 N   0  0  0  0  0  0  0  0  0  0  0  0
   58.1870   80.0700   31.0190 C   0  0  0  0  0  0  0  0  0  0  0  0
   58.7280   81.1600   31.7150 C   0  0  0  0  0  0  0  0  0  0  0  0
   62.8032   81.6700   31.2473 H   0  0  0  0  0  0  0  0  0  0  0  0
   63.6528   83.0302   30.4381 H   0  0  0  0  0  0  0  0  0  0  0  0
   64.3820   81.3885   30.4381 H   0  0  0  0  0  0  0  0  0  0  0  0
   64.5290   83.8370   32.5630 H   0  0  0  0  0  0  0  0  0  0  0  0
   63.1023   80.5183   35.1190 H   0  0  0  0  0  0  0  0  0  0  0  0
   62.1654   80.2083   33.6181 H   0  0  0  0  0  0  0  0  0  0  0  0
   63.9513   80.0152   33.6181 H   0  0  0  0  0  0  0  0  0  0  0  0
   62.7262   83.4374   35.1460 H   0  0  0  0  0  0  0  0  0  0  0  0
   62.3511   83.9634   33.4790 H   0  0  0  0  0  0  0  0  0  0  0  0
   58.7086   83.3317   33.3329 H   0  0  0  0  0  0  0  0  0  0  0  0
   60.0856   84.5333   33.4344 H   0  0  0  0  0  0  0  0  0  0  0  0
   60.3479   82.6672   29.1267 H   0  0  0  0  0  0  0  0  0  0  0  0
   59.3833   80.7260   27.9080 H   0  0  0  0  0  0  0  0  0  0  0  0
   58.4490   78.1710   28.4940 H   0  0  0  0  0  0  0  0  0  0  0  0
   54.1557   76.4839   30.2095 H   0  0  0  0  0  0  0  0  0  0  0  0
   53.4166   77.1939   25.1963 H   0  0  0  0  0  0  0  0  0  0  0  0
   52.5129   82.3709   24.8726 H   0  0  0  0  0  0  0  0  0  0  0  0
   53.5908   81.9669   23.4936 H   0  0  0  0  0  0  0  0  0  0  0  0
   51.8841   81.4067   23.4936 H   0  0  0  0  0  0  0  0  0  0  0  0
   54.7533   81.1029   27.6666 H   0  0  0  0  0  0  0  0  0  0  0  0
   53.2447   82.5766   28.1933 H   0  0  0  0  0  0  0  0  0  0  0  0
   53.5804   83.4991   26.6889 H   0  0  0  0  0  0  0  0  0  0  0  0
   52.3371   82.2025   26.6889 H   0  0  0  0  0  0  0  0  0  0  0  0
   56.2793   82.5162   26.7226 H   0  0  0  0  0  0  0  0  0  0  0  0
   56.0580   81.3756   25.3526 H   0  0  0  0  0  0  0  0  0  0  0  0
   55.2039   82.9558   25.3526 H   0  0  0  0  0  0  0  0  0  0  0  0
   57.5671   79.3422   31.5630 H   0  0  0  0  0  0  0  0  0  0  0  0
   58.5318   81.2779   32.7909 H   0  0  0  0  0  0  0  0  0  0  0  0
  1  2  1  0
  2  3  2  3
  3  4  1  0
  3  5  1  0
  5  6  1  0
  6  7  1  0
  7  8  1  0
  8  9  2  0
  8 10  1  0
 10 11  1  0
 11 12  2  0
 12 13  1  0
 13 14  1  0
 14 15  1  0
 15 16  2  0
 16 17  1  0
 17 18  2  0
 18 19  1  0
 18 20  1  0
 20 21  1  0
 21 22  2  0
 22 23  1  0
 23 24  2  0
 24 25  1  0
 24 26  1  0
 26 27  1  0
 27 28  1  0
 27 29  1  0
 20 30  2  0
 13 31  2  0
 31 32  1  0
 32 10  2  0
 30 15  1  0
 26 21  1  0
  1 33  1  0
  1 34  1  0
  1 35  1  0
  2 36  1  0
  4 37  1  0
  4 38  1  0
  4 39  1  0
  5 40  1  0
  5 41  1  0
  7 42  1  0
  7 43  1  0
 11 44  1  0
 12 45  1  0
 14 46  1  0
 17 47  1  0
 22 48  1  0
 25 49  1  0
 25 50  1  0
 25 51  1  0
 27 52  1  0
 28 53  1  0
 28 54  1  0
 28 55  1  0
 29 56  1  0
 29 57  1  0
 29 58  1  0
 31 59  1  0
 32 60  1  0
M  END
>  <meeko>  (1) 
{"is_sidechain": false}

>  <smiles>  (1) 
C[SH]=C(C)CSCC(=O)c1ccc(Nc2ncc(F)c(-c3cnc(C)n3C(C)C)n2)cc1

>  <vina_score>  (1) 
-8.549

>  <job_id>  (1) 
7fe07a9711b6c91c

$$$$
