
     RDKit          3D

 40 41  0  0  0  0  0  0  0  0999 V2000
   52.1870   75.3870   26.8850 C   0  0  0  0  0  0  0  0  0  0  0  0
   52.1830   76.5230   27.8960 C   0  0  0  0  0  0  0  0  0  0  0  0
   53.3290   77.4770   27.6710 C   0  0  0  0  0  0  0  0  0  0  0  0
   54.3410   77.6090   28.6280 C   0  0  0  0  0  0  0  0  0  0  0  0
   55.3910   78.5060   28.4310 C   0  0  0  0  0  0  0  0  0  0  0  0
   55.4490   79.2890   27.2700 C   0  0  0  0  0  0  0  0  0  0  0  0
   56.5990   80.2430   27.0470 C   0  0  0  0  0  0  0  0  0  0  0  0
   57.7600   80.0810   28.0230 C   0  0  0  0  0  0  0  0  0  0  0  0
   58.4420   79.0590   28.0060 O   0  0  0  0  0  0  0  0  0  0  0  0
   57.9000   81.1370   28.9110 N   0  0  0  0  0  0  0  0  0  0  0  0
   58.8280   81.2620   29.9630 C   0  0  0  0  0  0  0  0  0  0  0  0
   59.9880   82.0400   29.8950 C   0  0  0  0  0  0  0  0  0  0  0  0
   60.8640   82.1090   30.9840 C   0  0  0  0  0  0  0  0  0  0  0  0
   60.5720   81.4010   32.1510 C   0  0  0  0  0  0  0  0  0  0  0  0
   61.6790   81.4840   33.5330 S   0  0  0  0  0  0  0  0  0  0  0  0
   62.1620   79.8760   33.6690 N   0  0  0  0  0  0  0  0  0  0  0  0
   60.9090   81.7650   34.7220 O   0  0  0  0  0  0  0  0  0  0  0  0
   62.8320   82.2630   33.1490 O   0  0  0  0  0  0  0  0  0  0  0  0
   59.4270   80.6070   32.2300 C   0  0  0  0  0  0  0  0  0  0  0  0
   58.5600   80.5410   31.1370 C   0  0  0  0  0  0  0  0  0  0  0  0
   54.4280   79.1680   26.3180 C   0  0  0  0  0  0  0  0  0  0  0  0
   53.3780   78.2700   26.5190 C   0  0  0  0  0  0  0  0  0  0  0  0
   52.1904   74.4236   27.4160 H   0  0  0  0  0  0  0  0  0  0  0  0
   51.2886   75.4547   26.2539 H   0  0  0  0  0  0  0  0  0  0  0  0
   53.0849   75.4610   26.2539 H   0  0  0  0  0  0  0  0  0  0  0  0
   51.2364   77.0761   27.8063 H   0  0  0  0  0  0  0  0  0  0  0  0
   52.2928   76.0875   28.9001 H   0  0  0  0  0  0  0  0  0  0  0  0
   54.3084   77.0002   29.5436 H   0  0  0  0  0  0  0  0  0  0  0  0
   56.1793   78.5995   29.1925 H   0  0  0  0  0  0  0  0  0  0  0  0
   56.9830   80.0846   26.0284 H   0  0  0  0  0  0  0  0  0  0  0  0
   56.1984   81.2550   27.2060 H   0  0  0  0  0  0  0  0  0  0  0  0
   57.3070   81.9430   28.7450 H   0  0  0  0  0  0  0  0  0  0  0  0
   60.2139   82.6028   28.9772 H   0  0  0  0  0  0  0  0  0  0  0  0
   61.7779   82.7179   30.9208 H   0  0  0  0  0  0  0  0  0  0  0  0
   62.4080   79.6900   34.6430 H   0  0  0  0  0  0  0  0  0  0  0  0
   61.4690   79.2160   33.3200 H   0  0  0  0  0  0  0  0  0  0  0  0
   59.2091   80.0378   33.1457 H   0  0  0  0  0  0  0  0  0  0  0  0
   57.6564   79.9165   31.1970 H   0  0  0  0  0  0  0  0  0  0  0  0
   54.4539   79.7840   25.4071 H   0  0  0  0  0  0  0  0  0  0  0  0
   52.5818   78.1850   25.7648 H   0  0  0  0  0  0  0  0  0  0  0  0
  1  2  1  0
  2  3  1  0
  3  4  1  0
  4  5  2  0
  5  6  1  0
  6  7  1  0
  7  8  1  0
  8  9  2  0
  8 10  1  0
 10 11  1  0
 11 12  1  0
 12 13  2  0
 13 14  1  0
 14 15  1  0
 15 16  1  0
 15 17  2  0
 15 18  2  0
 14 19  2  0
 19 20  1  0
  6 21  2  0
 21 22  1  0
 22  3  2  0
 20 11  2  0
  1 23  1  0
  1 24  1  0
  1 25  1  0
  2 26  1  0
  2 27  1  0
  4 28  1  0
  5 29  1  0
  7 30  1  0
  7 31  1  0
 10 32  1  0
 12 33  1  0
 13 34  1  0
 16 35  1  0
 16 36  1  0
 19 37  1  0
 20 38  1  0
 21 39  1  0
 22 40  1  0
M  END
>  <meeko>  (1) 
{"is_sidechain": false}

>  <smiles>  (1) 
CCc1ccc(CC(=O)Nc2ccc(S(N)(=O)=O)cc2)cc1

>  <vina_score>  (1) 
-7.990

>  <job_id>  (1) 
801bb82a5bffedf1

$$$$
