
     RDKit          3D

 42 43  0  0  0  0  0  0  0  0999 V2000
   58.7590   80.9810   32.5730 C   0  0  0  0  0  0  0  0  0  0  0  0
   59.2430   80.6350   31.1680 C   0  0  0  0  0  0  0  0  0  0  0  0
   60.2270   81.6860   30.6600 C   0  0  0  0  0  0  0  0  0  0  0  0
   58.1090   80.5200   30.2630 N   0  0  0  0  0  0  0  0  0  0  0  0
   58.0570   79.5720   29.2660 C   0  0  0  0  0  0  0  0  0  0  0  0
   58.9350   78.7310   29.1030 O   0  0  0  0  0  0  0  0  0  0  0  0
   56.9040   79.6280   28.3190 C   0  0  0  0  0  0  0  0  0  0  0  0
   56.9590   80.6320   27.3440 C   0  0  0  0  0  0  0  0  0  0  0  0
   55.9280   80.7870   26.4060 C   0  0  0  0  0  0  0  0  0  0  0  0
   54.8050   79.9510   26.3930 C   0  0  0  0  0  0  0  0  0  0  0  0
   53.7880   80.1030   25.4680 N   0  0  0  0  0  0  0  0  0  0  0  0
   52.5140   80.7610   25.8110 C   0  0  0  0  0  0  0  0  0  0  0  0
   51.8470   81.3520   24.5470 C   0  0  0  0  0  0  0  0  0  0  0  0
   51.5270   80.3490   23.5090 N   0  0  0  0  0  0  0  0  0  0  0  0
   51.4380   80.9810   22.1950 C   0  0  0  0  0  0  0  0  0  0  0  0
   52.4930   79.2330   23.5200 C   0  0  0  0  0  0  0  0  0  0  0  0
   53.8900   79.5560   24.1030 C   0  0  0  0  0  0  0  0  0  0  0  0
   54.7760   78.9410   27.3680 C   0  0  0  0  0  0  0  0  0  0  0  0
   55.8010   78.7700   28.3160 C   0  0  0  0  0  0  0  0  0  0  0  0
   55.6130   77.4390   29.4070 Cl  0  0  0  0  0  0  0  0  0  0  0  0
   59.4196   80.5088   33.3150 H   0  0  0  0  0  0  0  0  0  0  0  0
   58.7766   82.0725   32.7084 H   0  0  0  0  0  0  0  0  0  0  0  0
   57.7319   80.6112   32.7084 H   0  0  0  0  0  0  0  0  0  0  0  0
   59.7656   79.6679   31.2070 H   0  0  0  0  0  0  0  0  0  0  0  0
   60.6992   82.1903   31.5160 H   0  0  0  0  0  0  0  0  0  0  0  0
   61.0010   81.1986   30.0490 H   0  0  0  0  0  0  0  0  0  0  0  0
   59.6898   82.4263   30.0490 H   0  0  0  0  0  0  0  0  0  0  0  0
   57.3980   81.2410   30.2910 H   0  0  0  0  0  0  0  0  0  0  0  0
   57.8248   81.3099   27.3135 H   0  0  0  0  0  0  0  0  0  0  0  0
   56.0040   81.5898   25.6578 H   0  0  0  0  0  0  0  0  0  0  0  0
   51.8368   80.0225   26.2650 H   0  0  0  0  0  0  0  0  0  0  0  0
   52.7171   81.5781   26.5189 H   0  0  0  0  0  0  0  0  0  0  0  0
   50.9123   81.8471   24.8489 H   0  0  0  0  0  0  0  0  0  0  0  0
   52.5721   82.0492   24.1019 H   0  0  0  0  0  0  0  0  0  0  0  0
   51.2856   82.0634   22.3183 H   0  0  0  0  0  0  0  0  0  0  0  0
   52.3701   80.8030   21.6386 H   0  0  0  0  0  0  0  0  0  0  0  0
   50.5913   80.5525   21.6386 H   0  0  0  0  0  0  0  0  0  0  0  0
   52.0590   78.4170   24.1165 H   0  0  0  0  0  0  0  0  0  0  0  0
   52.6627   78.9748   22.4643 H   0  0  0  0  0  0  0  0  0  0  0  0
   54.4886   78.6336   24.1306 H   0  0  0  0  0  0  0  0  0  0  0  0
   54.3675   80.3112   23.4614 H   0  0  0  0  0  0  0  0  0  0  0  0
   53.9163   78.2552   27.3914 H   0  0  0  0  0  0  0  0  0  0  0  0
  1  2  1  0
  2  3  1  0
  2  4  1  0
  4  5  1  0
  5  6  2  0
  5  7  1  0
  7  8  1  0
  8  9  2  0
  9 10  1  0
 10 11  1  0
 11 12  1  0
 12 13  1  0
 13 14  1  0
 14 15  1  0
 14 16  1  0
 16 17  1  0
 10 18  2  0
 18 19  1  0
 19 20  1  0
 19  7  2  0
 17 11  1  0
  1 21  1  0
  1 22  1  0
  1 23  1  0
  2 24  1  0
  3 25  1  0
  3 26  1  0
  3 27  1  0
  4 28  1  0
  8 29  1  0
  9 30  1  0
 12 31  1  0
 12 32  1  0
 13 33  1  0
 13 34  1  0
 15 35  1  0
 15 36  1  0
 15 37  1  0
 16 38  1  0
 16 39  1  0
 17 40  1  0
 17 41  1  0
 18 42  1  0
M  END
>  <meeko>  (1) 
{"is_sidechain": false}

>  <smiles>  (1) 
CC(C)NC(=O)c1ccc(N2CCN(C)CC2)cc1Cl

>  <vina_score>  (1) 
-6.472

>  <job_id>  (1) 
802a25017ece4c36

$$$$
