
     RDKit          3D

 39 40  0  0  0  0  0  0  0  0999 V2000
   58.7250   81.0520   32.4040 C   0  0  0  0  0  0  0  0  0  0  0  0
   58.0830   80.2350   31.2940 C   0  0  0  0  0  0  0  0  0  0  0  0
   58.9930   80.1470   30.0690 C   0  0  0  0  0  0  0  0  0  0  0  0
   58.5430   79.1080   29.1480 N   0  0  0  0  0  0  0  0  0  0  0  0
   57.2290   79.0400   28.6870 C   0  0  0  0  0  0  0  0  0  0  0  0
   56.8430   79.9050   27.6500 C   0  0  0  0  0  0  0  0  0  0  0  0
   55.5610   79.8560   27.0940 C   0  0  0  0  0  0  0  0  0  0  0  0
   54.6420   78.9230   27.5670 C   0  0  0  0  0  0  0  0  0  0  0  0
   53.3780   78.7980   27.0410 O   0  0  0  0  0  0  0  0  0  0  0  0
   53.0770   79.5620   25.9350 C   0  0  0  0  0  0  0  0  0  0  0  0
   52.5310   80.8480   26.0260 C   0  0  0  0  0  0  0  0  0  0  0  0
   52.2110   81.5510   24.8630 C   0  0  0  0  0  0  0  0  0  0  0  0
   52.4340   80.9580   23.6170 C   0  0  0  0  0  0  0  0  0  0  0  0
   52.0210   81.8370   22.1330 S   0  0  0  0  0  0  0  0  0  0  0  0
   50.4830   81.2330   21.8050 N   0  0  0  0  0  0  0  0  0  0  0  0
   51.8900   83.2390   22.4540 O   0  0  0  0  0  0  0  0  0  0  0  0
   52.8630   81.3580   21.0630 O   0  0  0  0  0  0  0  0  0  0  0  0
   52.9480   79.6610   23.5220 C   0  0  0  0  0  0  0  0  0  0  0  0
   53.2660   78.9630   24.6870 C   0  0  0  0  0  0  0  0  0  0  0  0
   55.0200   78.0140   28.5500 C   0  0  0  0  0  0  0  0  0  0  0  0
   56.3060   78.0720   29.0990 C   0  0  0  0  0  0  0  0  0  0  0  0
   58.4120   80.6537   33.3804 H   0  0  0  0  0  0  0  0  0  0  0  0
   59.8199   80.9918   32.3173 H   0  0  0  0  0  0  0  0  0  0  0  0
   58.4075   82.1016   32.3173 H   0  0  0  0  0  0  0  0  0  0  0  0
   57.8845   79.2191   31.6662 H   0  0  0  0  0  0  0  0  0  0  0  0
   57.1475   80.7309   30.9956 H   0  0  0  0  0  0  0  0  0  0  0  0
   58.9866   81.1155   29.5475 H   0  0  0  0  0  0  0  0  0  0  0  0
   60.0085   79.8945   30.4081 H   0  0  0  0  0  0  0  0  0  0  0  0
   59.2240   78.9000   28.4240 H   0  0  0  0  0  0  0  0  0  0  0  0
   57.5668   80.6388   27.2659 H   0  0  0  0  0  0  0  0  0  0  0  0
   55.2803   80.5501   26.2881 H   0  0  0  0  0  0  0  0  0  0  0  0
   52.3545   81.3035   27.0116 H   0  0  0  0  0  0  0  0  0  0  0  0
   51.7866   82.5638   24.9267 H   0  0  0  0  0  0  0  0  0  0  0  0
   50.4660   80.5710   21.0310 H   0  0  0  0  0  0  0  0  0  0  0  0
   49.8480   82.0180   21.6510 H   0  0  0  0  0  0  0  0  0  0  0  0
   53.1002   79.1953   22.5371 H   0  0  0  0  0  0  0  0  0  0  0  0
   53.6659   77.9402   24.6231 H   0  0  0  0  0  0  0  0  0  0  0  0
   54.3082   77.2499   28.8956 H   0  0  0  0  0  0  0  0  0  0  0  0
   56.5970   77.3426   29.8693 H   0  0  0  0  0  0  0  0  0  0  0  0
  1  2  1  0
  2  3  1  0
  3  4  1  0
  4  5  1  0
  5  6  1  0
  6  7  2  0
  7  8  1  0
  8  9  1  0
  9 10  1  0
 10 11  1  0
 11 12  2  0
 12 13  1  0
 13 14  1  0
 14 15  1  0
 14 16  2  0
 14 17  2  0
 13 18  2  0
 18 19  1  0
  8 20  2  0
 20 21  1  0
 21  5  2  0
 19 10  2  0
  1 22  1  0
  1 23  1  0
  1 24  1  0
  2 25  1  0
  2 26  1  0
  3 27  1  0
  3 28  1  0
  4 29  1  0
  6 30  1  0
  7 31  1  0
 11 32  1  0
 12 33  1  0
 15 34  1  0
 15 35  1  0
 18 36  1  0
 19 37  1  0
 20 38  1  0
 21 39  1  0
M  END
>  <meeko>  (1) 
{"is_sidechain": false}

>  <smiles>  (1) 
CCCNc1ccc(Oc2ccc(S(N)(=O)=O)cc2)cc1

>  <vina_score>  (1) 
-7.783

>  <job_id>  (1) 
8096565b0afe70f1

$$$$
