
     RDKit          3D

 42 44  0  0  0  0  0  0  0  0999 V2000
   52.3710   74.9690   26.4880 C   0  0  0  0  0  0  0  0  0  0  0  0
   51.7070   76.2100   26.2690 O   0  0  0  0  0  0  0  0  0  0  0  0
   52.5970   77.2890   26.6790 N   0  0  0  0  0  0  0  0  0  0  0  0
   53.4580   77.6080   25.5420 C   0  0  0  0  0  0  0  0  0  0  0  0
   54.0630   79.0020   25.4900 C   0  0  0  0  0  0  0  0  0  0  0  0
   54.0930   79.6840   26.8490 C   0  0  0  0  0  0  0  0  0  0  0  0
   54.8370   78.9340   27.9240 C   0  0  0  0  0  0  0  0  0  0  0  0
   55.9030   79.6190   28.4270 N   0  0  0  0  0  0  0  0  0  0  0  0
   56.6760   79.0550   29.3870 C   0  0  0  0  0  0  0  0  0  0  0  0
   57.8070   79.8790   29.8620 C   0  0  0  0  0  0  0  0  0  0  0  0
   58.0810   79.9880   31.2410 C   0  0  0  0  0  0  0  0  0  0  0  0
   59.1440   80.7610   31.7190 C   0  0  0  0  0  0  0  0  0  0  0  0
   59.9450   81.4540   30.8140 C   0  0  0  0  0  0  0  0  0  0  0  0
   61.2910   82.4430   31.4030 S   0  0  0  0  0  0  0  0  0  0  0  0
   62.6000   81.7280   30.6190 N   0  0  0  0  0  0  0  0  0  0  0  0
   61.1730   83.7680   30.8360 O   0  0  0  0  0  0  0  0  0  0  0  0
   61.4420   82.2150   32.8200 O   0  0  0  0  0  0  0  0  0  0  0  0
   59.7060   81.3640   29.4420 C   0  0  0  0  0  0  0  0  0  0  0  0
   58.6410   80.5860   28.9750 C   0  0  0  0  0  0  0  0  0  0  0  0
   56.3950   77.7910   29.8830 C   0  0  0  0  0  0  0  0  0  0  0  0
   55.3070   77.0930   29.3680 C   0  0  0  0  0  0  0  0  0  0  0  0
   54.5070   77.6460   28.3550 C   0  0  0  0  0  0  0  0  0  0  0  0
   53.3210   76.8370   27.8730 C   0  0  0  0  0  0  0  0  0  0  0  0
   52.4667   74.7901   27.5691 H   0  0  0  0  0  0  0  0  0  0  0  0
   51.7876   74.1555   26.0320 H   0  0  0  0  0  0  0  0  0  0  0  0
   53.3715   75.0030   26.0320 H   0  0  0  0  0  0  0  0  0  0  0  0
   54.2894   76.8877   25.5458 H   0  0  0  0  0  0  0  0  0  0  0  0
   52.7956   77.5567   24.6653 H   0  0  0  0  0  0  0  0  0  0  0  0
   55.0936   78.9237   25.1135 H   0  0  0  0  0  0  0  0  0  0  0  0
   53.4311   79.6121   24.8278 H   0  0  0  0  0  0  0  0  0  0  0  0
   54.5707   80.6672   26.7265 H   0  0  0  0  0  0  0  0  0  0  0  0
   53.0473   79.7441   27.1849 H   0  0  0  0  0  0  0  0  0  0  0  0
   57.4427   79.4517   31.9586 H   0  0  0  0  0  0  0  0  0  0  0  0
   59.3456   80.8212   32.7987 H   0  0  0  0  0  0  0  0  0  0  0  0
   63.4610   82.0200   31.0850 H   0  0  0  0  0  0  0  0  0  0  0  0
   62.6260   81.9280   29.6190 H   0  0  0  0  0  0  0  0  0  0  0  0
   60.3513   81.9017   28.7317 H   0  0  0  0  0  0  0  0  0  0  0  0
   58.4515   80.5255   27.8931 H   0  0  0  0  0  0  0  0  0  0  0  0
   57.0218   77.3474   30.6706 H   0  0  0  0  0  0  0  0  0  0  0  0
   55.0700   76.0930   29.7603 H   0  0  0  0  0  0  0  0  0  0  0  0
   53.6859   75.8204   27.6647 H   0  0  0  0  0  0  0  0  0  0  0  0
   52.5845   76.9342   28.6842 H   0  0  0  0  0  0  0  0  0  0  0  0
  1  2  1  0
  2  3  1  0
  3  4  1  0
  4  5  1  0
  5  6  1  0
  6  7  1  0
  7  8  1  0
  8  9  2  0
  9 10  1  0
 10 11  1  0
 11 12  2  0
 12 13  1  0
 13 14  1  0
 14 15  1  0
 14 16  2  0
 14 17  2  0
 13 18  2  0
 18 19  1  0
  9 20  1  0
 20 21  2  0
 21 22  1  0
 22 23  1  0
 23  3  1  0
 22  7  2  0
 19 10  2  0
  1 24  1  0
  1 25  1  0
  1 26  1  0
  4 27  1  0
  4 28  1  0
  5 29  1  0
  5 30  1  0
  6 31  1  0
  6 32  1  0
 11 33  1  0
 12 34  1  0
 15 35  1  0
 15 36  1  0
 18 37  1  0
 19 38  1  0
 20 39  1  0
 21 40  1  0
 23 41  1  0
 23 42  1  0
M  END
>  <meeko>  (1) 
{"is_sidechain": false}

>  <smiles>  (1) 
CON1CCCc2nc(-c3ccc(S(N)(=O)=O)cc3)ccc2C1

>  <vina_score>  (1) 
-5.982

>  <job_id>  (1) 
80c7266b2ed901eb

$$$$
