
     RDKit          3D

 59 62  0  0  0  0  0  0  0  0999 V2000
   62.8920   83.7650   33.3800 C   0  0  0  0  0  0  0  0  0  0  0  0
   62.0060   82.7900   32.8360 O   0  0  0  0  0  0  0  0  0  0  0  0
   61.7750   81.7360   33.6880 C   0  0  0  0  0  0  0  0  0  0  0  0
   62.7850   80.8660   34.1010 C   0  0  0  0  0  0  0  0  0  0  0  0
   62.4860   79.8270   34.9850 C   0  0  0  0  0  0  0  0  0  0  0  0
   61.1850   79.6700   35.4650 C   0  0  0  0  0  0  0  0  0  0  0  0
   60.1790   80.5510   35.0640 C   0  0  0  0  0  0  0  0  0  0  0  0
   60.4590   81.5920   34.1720 C   0  0  0  0  0  0  0  0  0  0  0  0
   59.4460   82.4850   33.7470 N   0  0  0  0  0  0  0  0  0  0  0  0
   58.2980   81.8420   33.0930 C   0  0  0  0  0  0  0  0  0  0  0  0
   58.6000   81.4700   31.6520 C   0  0  0  0  0  0  0  0  0  0  0  0
   59.2950   82.3520   30.8300 C   0  0  0  0  0  0  0  0  0  0  0  0
   59.5020   81.9970   29.5040 C   0  0  0  0  0  0  0  0  0  0  0  0
   59.0130   80.7790   29.0420 C   0  0  0  0  0  0  0  0  0  0  0  0
   58.3370   79.9360   29.9180 C   0  0  0  0  0  0  0  0  0  0  0  0
   57.7820   78.7200   29.5110 N   0  0  0  0  0  0  0  0  0  0  0  0
   56.4890   78.3880   29.0650 C   0  0  0  0  0  0  0  0  0  0  0  0
   55.7270   77.3540   29.6060 C   0  0  0  0  0  0  0  0  0  0  0  0
   54.4610   77.0770   29.1000 C   0  0  0  0  0  0  0  0  0  0  0  0
   53.9460   77.8290   28.0400 C   0  0  0  0  0  0  0  0  0  0  0  0
   54.6720   78.8740   27.4510 C   0  0  0  0  0  0  0  0  0  0  0  0
   54.1470   79.6270   26.4020 N   0  0  0  0  0  0  0  0  0  0  0  0
   54.5170   81.0350   26.2470 C   0  0  0  0  0  0  0  0  0  0  0  0
   53.3710   82.0230   26.4740 C   0  0  0  0  0  0  0  0  0  0  0  0
   52.4220   82.1650   25.2770 C   0  0  0  0  0  0  0  0  0  0  0  0
   51.8940   80.8880   24.7940 N   0  0  0  0  0  0  0  0  0  0  0  0
   52.9360   79.9890   24.2700 C   0  0  0  0  0  0  0  0  0  0  0  0
   53.4940   78.9560   25.2690 C   0  0  0  0  0  0  0  0  0  0  0  0
   55.9430   79.1310   27.9980 C   0  0  0  0  0  0  0  0  0  0  0  0
   58.1140   80.2800   31.2030 N   0  0  0  0  0  0  0  0  0  0  0  0
   62.8537   83.7229   34.4785 H   0  0  0  0  0  0  0  0  0  0  0  0
   63.9177   83.5583   33.0407 H   0  0  0  0  0  0  0  0  0  0  0  0
   62.5883   84.7663   33.0407 H   0  0  0  0  0  0  0  0  0  0  0  0
   63.8127   80.9981   33.7317 H   0  0  0  0  0  0  0  0  0  0  0  0
   63.2767   79.1317   35.3033 H   0  0  0  0  0  0  0  0  0  0  0  0
   60.9517   78.8505   36.1607 H   0  0  0  0  0  0  0  0  0  0  0  0
   59.1576   80.4257   35.4526 H   0  0  0  0  0  0  0  0  0  0  0  0
   59.8790   83.1290   33.0740 H   0  0  0  0  0  0  0  0  0  0  0  0
   58.0382   80.9289   33.6486 H   0  0  0  0  0  0  0  0  0  0  0  0
   57.4627   82.5577   33.0915 H   0  0  0  0  0  0  0  0  0  0  0  0
   59.6716   83.3083   31.2219 H   0  0  0  0  0  0  0  0  0  0  0  0
   60.0464   82.6710   28.8262 H   0  0  0  0  0  0  0  0  0  0  0  0
   59.1598   80.4850   27.9922 H   0  0  0  0  0  0  0  0  0  0  0  0
   58.5050   78.2000   29.0210 H   0  0  0  0  0  0  0  0  0  0  0  0
   56.1282   76.7545   30.4364 H   0  0  0  0  0  0  0  0  0  0  0  0
   53.8629   76.2631   29.5357 H   0  0  0  0  0  0  0  0  0  0  0  0
   52.9420   77.5941   27.6569 H   0  0  0  0  0  0  0  0  0  0  0  0
   55.3141   81.2620   26.9702 H   0  0  0  0  0  0  0  0  0  0  0  0
   54.8347   81.1607   25.2014 H   0  0  0  0  0  0  0  0  0  0  0  0
   52.7859   81.6807   27.3403 H   0  0  0  0  0  0  0  0  0  0  0  0
   53.8294   83.0099   26.6350 H   0  0  0  0  0  0  0  0  0  0  0  0
   51.5756   82.8001   25.5775 H   0  0  0  0  0  0  0  0  0  0  0  0
   53.0039   82.6058   24.4541 H   0  0  0  0  0  0  0  0  0  0  0  0
   51.4320   80.4140   25.5700 H   0  0  0  0  0  0  0  0  0  0  0  0
   52.5101   79.4389   23.4180 H   0  0  0  0  0  0  0  0  0  0  0  0
   53.7843   80.6370   24.0046 H   0  0  0  0  0  0  0  0  0  0  0  0
   52.6677   78.3348   25.6450 H   0  0  0  0  0  0  0  0  0  0  0  0
   54.2376   78.3313   24.7524 H   0  0  0  0  0  0  0  0  0  0  0  0
   56.5396   79.9514   27.5725 H   0  0  0  0  0  0  0  0  0  0  0  0
  1  2  1  0
  2  3  1  0
  3  4  2  0
  4  5  1  0
  5  6  2  0
  6  7  1  0
  7  8  2  0
  8  9  1  0
  9 10  1  0
 10 11  1  0
 11 12  2  0
 12 13  1  0
 13 14  2  0
 14 15  1  0
 15 16  1  0
 16 17  1  0
 17 18  1  0
 18 19  2  0
 19 20  1  0
 20 21  2  0
 21 22  1  0
 22 23  1  0
 23 24  1  0
 24 25  1  0
 25 26  1  0
 26 27  1  0
 27 28  1  0
 21 29  1  0
 15 30  2  0
  8  3  1  0
 30 11  1  0
 29 17  2  0
 28 22  1  0
  1 31  1  0
  1 32  1  0
  1 33  1  0
  4 34  1  0
  5 35  1  0
  6 36  1  0
  7 37  1  0
  9 38  1  0
 10 39  1  0
 10 40  1  0
 12 41  1  0
 13 42  1  0
 14 43  1  0
 16 44  1  0
 18 45  1  0
 19 46  1  0
 20 47  1  0
 23 48  1  0
 23 49  1  0
 24 50  1  0
 24 51  1  0
 25 52  1  0
 25 53  1  0
 26 54  1  0
 27 55  1  0
 27 56  1  0
 28 57  1  0
 28 58  1  0
 29 59  1  0
M  END
>  <meeko>  (1) 
{"is_sidechain": false}

>  <smiles>  (1) 
COc1ccccc1NCc1cccc(Nc2cccc(N3CCCNCC3)c2)n1

>  <vina_score>  (1) 
-7.041

>  <job_id>  (1) 
8104f447e3b3cc4e

$$$$
