
     RDKit          3D

 46 49  0  0  0  0  0  0  0  0999 V2000
   60.0630   81.8170   30.4870 C   0  0  0  0  0  0  0  0  0  0  0  0
   58.8210   81.0320   30.0720 C   0  0  0  0  0  0  0  0  0  0  0  0
   58.9330   80.5470   28.6140 C   0  0  0  0  0  0  0  0  0  0  0  0
   58.2580   79.1920   28.3820 C   0  0  0  0  0  0  0  0  0  0  0  0
   57.0450   79.1080   29.1930 N   0  0  0  0  0  0  0  0  0  0  0  0
   55.9060   78.5620   28.6730 C   0  0  0  0  0  0  0  0  0  0  0  0
   55.3530   77.3630   29.0600 C   0  0  0  0  0  0  0  0  0  0  0  0
   54.2360   77.1440   28.3010 N   0  0  0  0  0  0  0  0  0  0  0  0
   53.3940   75.9720   28.3960 C   0  0  0  0  0  0  0  0  0  0  0  0
   54.0180   78.2050   27.4480 C   0  0  0  0  0  0  0  0  0  0  0  0
   53.0040   78.4380   26.5110 C   0  0  0  0  0  0  0  0  0  0  0  0
   53.0270   79.6470   25.8030 C   0  0  0  0  0  0  0  0  0  0  0  0
   54.0100   80.6330   25.9990 C   0  0  0  0  0  0  0  0  0  0  0  0
   54.0150   82.0100   25.2090 C   0  0  0  0  0  0  0  0  0  0  0  0
   53.5460   83.3020   25.9220 C   0  0  0  0  0  0  0  0  0  0  0  0
   52.9350   83.7480   24.6460 N   0  0  0  0  0  0  0  0  0  0  0  0
   52.8660   82.3290   24.2210 C   0  0  0  0  0  0  0  0  0  0  0  0
   55.0100   80.3410   26.9530 C   0  0  0  0  0  0  0  0  0  0  0  0
   55.0440   79.1240   27.6750 C   0  0  0  0  0  0  0  0  0  0  0  0
   57.2690   79.1130   30.6450 C   0  0  0  0  0  0  0  0  0  0  0  0
   58.5590   79.8570   31.0190 C   0  0  0  0  0  0  0  0  0  0  0  0
   60.1230   81.8549   31.5847 H   0  0  0  0  0  0  0  0  0  0  0  0
   60.9603   81.3216   30.0876 H   0  0  0  0  0  0  0  0  0  0  0  0
   60.0006   82.8400   30.0876 H   0  0  0  0  0  0  0  0  0  0  0  0
   57.9611   81.7147   30.1397 H   0  0  0  0  0  0  0  0  0  0  0  0
   58.4581   81.2922   27.9590 H   0  0  0  0  0  0  0  0  0  0  0  0
   60.0027   80.4253   28.3883 H   0  0  0  0  0  0  0  0  0  0  0  0
   57.9961   79.0899   27.3185 H   0  0  0  0  0  0  0  0  0  0  0  0
   58.9478   78.3844   28.6684 H   0  0  0  0  0  0  0  0  0  0  0  0
   55.7416   76.6961   29.8438 H   0  0  0  0  0  0  0  0  0  0  0  0
   53.2203   75.7302   29.4549 H   0  0  0  0  0  0  0  0  0  0  0  0
   52.4312   76.1712   27.9027 H   0  0  0  0  0  0  0  0  0  0  0  0
   53.8901   75.1232   27.9027 H   0  0  0  0  0  0  0  0  0  0  0  0
   52.2129   77.6941   26.3359 H   0  0  0  0  0  0  0  0  0  0  0  0
   52.2388   79.8335   25.0587 H   0  0  0  0  0  0  0  0  0  0  0  0
   55.0541   81.8385   24.8916 H   0  0  0  0  0  0  0  0  0  0  0  0
   52.8253   83.1348   26.7360 H   0  0  0  0  0  0  0  0  0  0  0  0
   54.2587   83.9415   26.4635 H   0  0  0  0  0  0  0  0  0  0  0  0
   53.5720   84.3040   24.0740 H   0  0  0  0  0  0  0  0  0  0  0  0
   51.9140   81.8308   24.4564 H   0  0  0  0  0  0  0  0  0  0  0  0
   52.9378   82.0511   23.1591 H   0  0  0  0  0  0  0  0  0  0  0  0
   55.7937   81.0893   27.1424 H   0  0  0  0  0  0  0  0  0  0  0  0
   56.4175   79.6076   31.1352 H   0  0  0  0  0  0  0  0  0  0  0  0
   57.3658   78.0698   30.9802 H   0  0  0  0  0  0  0  0  0  0  0  0
   58.4668   80.2391   32.0464 H   0  0  0  0  0  0  0  0  0  0  0  0
   59.4004   79.1531   30.9384 H   0  0  0  0  0  0  0  0  0  0  0  0
  1  2  1  0
  2  3  1  0
  3  4  1  0
  4  5  1  0
  5  6  1  0
  6  7  2  0
  7  8  1  0
  8  9  1  0
  8 10  1  0
 10 11  2  0
 11 12  1  0
 12 13  2  0
 13 14  1  0
 14 15  1  0
 15 16  1  0
 16 17  1  0
 13 18  1  0
 18 19  2  0
  5 20  1  0
 20 21  1  0
 21  2  1  0
 19  6  1  0
 19 10  1  0
 17 14  1  0
  1 22  1  0
  1 23  1  0
  1 24  1  0
  2 25  1  0
  3 26  1  0
  3 27  1  0
  4 28  1  0
  4 29  1  0
  7 30  1  0
  9 31  1  0
  9 32  1  0
  9 33  1  0
 11 34  1  0
 12 35  1  0
 14 36  1  0
 15 37  1  0
 15 38  1  0
 16 39  1  0
 17 40  1  0
 17 41  1  0
 18 42  1  0
 20 43  1  0
 20 44  1  0
 21 45  1  0
 21 46  1  0
M  END
>  <meeko>  (1) 
{"is_sidechain": false}

>  <smiles>  (1) 
CC1CCN(c2cn(C)c3ccc(C4CNC4)cc23)CC1

>  <vina_score>  (1) 
-8.010

>  <job_id>  (1) 
81a698022b70217e

$$$$
