
     RDKit          3D

 40 42  0  0  0  0  0  0  0  0999 V2000
   59.2360   81.3360   33.9780 Cl  0  0  0  0  0  0  0  0  0  0  0  0
   59.4150   81.2000   32.2710 C   0  0  0  0  0  0  0  0  0  0  0  0
   60.2790   82.0610   31.5990 C   0  0  0  0  0  0  0  0  0  0  0  0
   60.4180   81.9510   30.2190 C   0  0  0  0  0  0  0  0  0  0  0  0
   59.6930   80.9820   29.5200 C   0  0  0  0  0  0  0  0  0  0  0  0
   58.8150   80.1110   30.1860 C   0  0  0  0  0  0  0  0  0  0  0  0
   58.1400   79.1280   29.4390 N   0  0  0  0  0  0  0  0  0  0  0  0
   56.9960   79.1860   28.6240 C   0  0  0  0  0  0  0  0  0  0  0  0
   56.9490   80.1280   27.5880 C   0  0  0  0  0  0  0  0  0  0  0  0
   55.8190   80.2550   26.7730 C   0  0  0  0  0  0  0  0  0  0  0  0
   54.7020   79.4380   26.9780 C   0  0  0  0  0  0  0  0  0  0  0  0
   53.4700   79.5720   26.1060 C   0  0  0  0  0  0  0  0  0  0  0  0
   53.6440   80.5150   24.9910 N   0  0  0  0  0  0  0  0  0  0  0  0
   53.2710   79.9060   23.6980 C   0  0  0  0  0  0  0  0  0  0  0  0
   51.8630   80.2960   23.2210 C   0  0  0  0  0  0  0  0  0  0  0  0
   51.6930   81.7100   23.0540 O   0  0  0  0  0  0  0  0  0  0  0  0
   52.5600   82.4830   23.8960 C   0  0  0  0  0  0  0  0  0  0  0  0
   52.8890   81.7690   25.2160 C   0  0  0  0  0  0  0  0  0  0  0  0
   54.7410   78.4980   28.0150 C   0  0  0  0  0  0  0  0  0  0  0  0
   55.8730   78.3780   28.8280 C   0  0  0  0  0  0  0  0  0  0  0  0
   58.6910   80.2310   31.5740 C   0  0  0  0  0  0  0  0  0  0  0  0
   60.8469   82.8218   32.1547 H   0  0  0  0  0  0  0  0  0  0  0  0
   61.0979   82.6261   29.6786 H   0  0  0  0  0  0  0  0  0  0  0  0
   59.8120   80.9000   28.4295 H   0  0  0  0  0  0  0  0  0  0  0  0
   58.5540   78.2050   29.5000 H   0  0  0  0  0  0  0  0  0  0  0  0
   57.8172   80.7802   27.4120 H   0  0  0  0  0  0  0  0  0  0  0  0
   55.8087   81.0021   25.9657 H   0  0  0  0  0  0  0  0  0  0  0  0
   53.2269   78.5826   25.6913 H   0  0  0  0  0  0  0  0  0  0  0  0
   52.6632   79.9657   26.7417 H   0  0  0  0  0  0  0  0  0  0  0  0
   53.9980   80.2289   22.9383 H   0  0  0  0  0  0  0  0  0  0  0  0
   53.2740   78.8153   23.8408 H   0  0  0  0  0  0  0  0  0  0  0  0
   51.6728   79.8049   22.2553 H   0  0  0  0  0  0  0  0  0  0  0  0
   51.1542   79.9717   23.9971 H   0  0  0  0  0  0  0  0  0  0  0  0
   53.4985   82.6742   23.3550 H   0  0  0  0  0  0  0  0  0  0  0  0
   52.0378   83.4189   24.1436 H   0  0  0  0  0  0  0  0  0  0  0  0
   53.4937   82.4408   25.8428 H   0  0  0  0  0  0  0  0  0  0  0  0
   51.9407   81.5124   25.7109 H   0  0  0  0  0  0  0  0  0  0  0  0
   53.8722   77.8470   28.1923 H   0  0  0  0  0  0  0  0  0  0  0  0
   55.8799   77.6365   29.6405 H   0  0  0  0  0  0  0  0  0  0  0  0
   58.0169   79.5557   32.1214 H   0  0  0  0  0  0  0  0  0  0  0  0
  1  2  1  0
  2  3  1  0
  3  4  2  0
  4  5  1  0
  5  6  2  0
  6  7  1  0
  7  8  1  0
  8  9  1  0
  9 10  2  0
 10 11  1  0
 11 12  1  0
 12 13  1  0
 13 14  1  0
 14 15  1  0
 15 16  1  0
 16 17  1  0
 17 18  1  0
 11 19  2  0
 19 20  1  0
  6 21  1  0
 21  2  2  0
 20  8  2  0
 18 13  1  0
  3 22  1  0
  4 23  1  0
  5 24  1  0
  7 25  1  0
  9 26  1  0
 10 27  1  0
 12 28  1  0
 12 29  1  0
 14 30  1  0
 14 31  1  0
 15 32  1  0
 15 33  1  0
 17 34  1  0
 17 35  1  0
 18 36  1  0
 18 37  1  0
 19 38  1  0
 20 39  1  0
 21 40  1  0
M  END
>  <meeko>  (1) 
{"is_sidechain": false}

>  <smiles>  (1) 
Clc1cccc(Nc2ccc(CN3CCOCC3)cc2)c1

>  <vina_score>  (1) 
-7.598

>  <job_id>  (1) 
81c71c89facc7302

$$$$
