
     RDKit          3D

 60 64  0  0  0  0  0  0  0  0999 V2000
   56.4490   81.4050   26.6270 C   0  0  0  0  0  0  0  0  0  0  0  0
   55.1700   80.8100   26.3190 N   0  0  0  0  0  0  0  0  0  0  0  0
   54.4110   81.3550   25.3360 N   0  0  0  0  0  0  0  0  0  0  0  0
   53.3200   80.5590   25.2670 C   0  0  0  0  0  0  0  0  0  0  0  0
   52.2340   80.8230   24.3120 C   0  0  0  0  0  0  0  0  0  0  0  0
   52.6400   80.8830   23.0080 N   0  0  0  0  0  0  0  0  0  0  0  0
   51.0590   80.9820   24.6280 O   0  0  0  0  0  0  0  0  0  0  0  0
   53.4070   79.5120   26.2140 C   0  0  0  0  0  0  0  0  0  0  0  0
   54.5960   79.7130   26.8890 C   0  0  0  0  0  0  0  0  0  0  0  0
   55.0650   78.8430   27.9500 C   0  0  0  0  0  0  0  0  0  0  0  0
   56.0960   79.2580   28.7000 N   0  0  0  0  0  0  0  0  0  0  0  0
   56.5010   78.4240   29.6670 C   0  0  0  0  0  0  0  0  0  0  0  0
   57.5840   78.7270   30.4890 N   0  0  0  0  0  0  0  0  0  0  0  0
   58.2950   79.9020   30.7430 C   0  0  0  0  0  0  0  0  0  0  0  0
   59.1350   80.4100   29.7440 C   0  0  0  0  0  0  0  0  0  0  0  0
   59.8370   81.6100   29.9190 C   0  0  0  0  0  0  0  0  0  0  0  0
   59.7240   82.3430   31.1000 C   0  0  0  0  0  0  0  0  0  0  0  0
   60.3750   83.5690   31.3120 N   0  0  0  0  0  0  0  0  0  0  0  0
   61.6900   83.9920   31.0590 C   0  0  0  0  0  0  0  0  0  0  0  0
   62.7480   83.1020   30.8420 C   0  0  0  0  0  0  0  0  0  0  0  0
   64.0510   83.5660   30.6280 C   0  0  0  0  0  0  0  0  0  0  0  0
   64.3230   84.9350   30.6290 C   0  0  0  0  0  0  0  0  0  0  0  0
   65.9900   85.4990   30.3610 S   0  0  0  0  0  0  0  0  0  0  0  0
   66.1020   85.2930   28.6130 C   0  0  0  0  0  0  0  0  0  0  0  0
   66.8100   84.4250   28.1120 O   0  0  0  0  0  0  0  0  0  0  0  0
   65.2390   86.2660   27.8120 C   0  0  0  0  0  0  0  0  0  0  0  0
   65.8710   86.6100   26.5230 N   0  0  0  0  0  0  0  0  0  0  0  0
   63.2800   85.8320   30.8620 C   0  0  0  0  0  0  0  0  0  0  0  0
   61.9780   85.3630   31.0720 C   0  0  0  0  0  0  0  0  0  0  0  0
   58.8720   81.8480   32.0930 C   0  0  0  0  0  0  0  0  0  0  0  0
   58.1660   80.6490   31.9140 C   0  0  0  0  0  0  0  0  0  0  0  0
   55.9410   77.2200   29.8960 N   0  0  0  0  0  0  0  0  0  0  0  0
   54.8980   76.8550   29.1280 C   0  0  0  0  0  0  0  0  0  0  0  0
   54.3910   77.6450   28.1280 C   0  0  0  0  0  0  0  0  0  0  0  0
   53.2660   77.2170   27.2150 C   0  0  0  0  0  0  0  0  0  0  0  0
   52.4900   78.3890   26.5620 C   0  0  0  0  0  0  0  0  0  0  0  0
   56.5732   81.4628   27.7184 H   0  0  0  0  0  0  0  0  0  0  0  0
   57.2529   80.7884   26.1986 H   0  0  0  0  0  0  0  0  0  0  0  0
   56.4953   82.4171   26.1986 H   0  0  0  0  0  0  0  0  0  0  0  0
   53.6280   80.7730   22.8080 H   0  0  0  0  0  0  0  0  0  0  0  0
   51.9760   81.0890   22.2820 H   0  0  0  0  0  0  0  0  0  0  0  0
   57.7350   77.9600   31.1290 H   0  0  0  0  0  0  0  0  0  0  0  0
   59.2461   79.8546   28.8010 H   0  0  0  0  0  0  0  0  0  0  0  0
   60.4873   81.9796   29.1124 H   0  0  0  0  0  0  0  0  0  0  0  0
   59.7930   84.2700   31.7570 H   0  0  0  0  0  0  0  0  0  0  0  0
   62.5522   82.0196   30.8396 H   0  0  0  0  0  0  0  0  0  0  0  0
   64.8660   82.8471   30.4579 H   0  0  0  0  0  0  0  0  0  0  0  0
   64.2610   85.8012   27.6184 H   0  0  0  0  0  0  0  0  0  0  0  0
   65.1228   87.1895   28.3983 H   0  0  0  0  0  0  0  0  0  0  0  0
   65.1890   86.4430   25.7790 H   0  0  0  0  0  0  0  0  0  0  0  0
   66.0090   87.6240   26.4990 H   0  0  0  0  0  0  0  0  0  0  0  0
   63.4819   86.9131   30.8808 H   0  0  0  0  0  0  0  0  0  0  0  0
   61.1664   86.0838   31.2504 H   0  0  0  0  0  0  0  0  0  0  0  0
   58.7534   82.4093   33.0316 H   0  0  0  0  0  0  0  0  0  0  0  0
   57.4984   80.2913   32.7117 H   0  0  0  0  0  0  0  0  0  0  0  0
   54.4298   75.8766   29.3109 H   0  0  0  0  0  0  0  0  0  0  0  0
   53.6914   76.5966   26.4124 H   0  0  0  0  0  0  0  0  0  0  0  0
   52.5437   76.6725   27.8410 H   0  0  0  0  0  0  0  0  0  0  0  0
   51.9993   78.0287   25.6458 H   0  0  0  0  0  0  0  0  0  0  0  0
   51.7435   78.7574   27.2810 H   0  0  0  0  0  0  0  0  0  0  0  0
  1  2  1  0
  2  3  1  0
  3  4  2  0
  4  5  1  0
  5  6  1  0
  5  7  2  0
  4  8  1  0
  8  9  2  0
  9 10  1  0
 10 11  2  0
 11 12  1  0
 12 13  1  0
 13 14  1  0
 14 15  1  0
 15 16  2  0
 16 17  1  0
 17 18  1  0
 18 19  1  0
 19 20  1  0
 20 21  2  0
 21 22  1  0
 22 23  1  0
 23 24  1  0
 24 25  2  0
 24 26  1  0
 26 27  1  0
 22 28  2  0
 28 29  1  0
 17 30  2  0
 30 31  1  0
 12 32  2  0
 32 33  1  0
 33 34  2  0
 34 35  1  0
 35 36  1  0
  9  2  1  0
 34 10  1  0
 36  8  1  0
 31 14  2  0
 29 19  2  0
  1 37  1  0
  1 38  1  0
  1 39  1  0
  6 40  1  0
  6 41  1  0
 13 42  1  0
 15 43  1  0
 16 44  1  0
 18 45  1  0
 20 46  1  0
 21 47  1  0
 26 48  1  0
 26 49  1  0
 27 50  1  0
 27 51  1  0
 28 52  1  0
 29 53  1  0
 30 54  1  0
 31 55  1  0
 33 56  1  0
 35 57  1  0
 35 58  1  0
 36 59  1  0
 36 60  1  0
M  END
>  <meeko>  (1) 
{"is_sidechain": false}

>  <smiles>  (1) 
Cn1nc(C(N)=O)c2c1-c1nc(Nc3ccc(Nc4ccc(SC(=O)CN)cc4)cc3)ncc1CC2

>  <vina_score>  (1) 
-8.511

>  <job_id>  (1) 
824191bc02110b98

$$$$
