
     RDKit          3D

 59 62  0  0  0  0  0  0  0  0999 V2000
   52.6810   78.7390   23.8670 C   0  0  0  0  0  0  0  0  0  0  0  0
   52.5600   78.1910   25.1710 O   0  0  0  0  0  0  0  0  0  0  0  0
   53.5420   78.4960   26.0790 C   0  0  0  0  0  0  0  0  0  0  0  0
   54.6000   79.3780   25.8440 C   0  0  0  0  0  0  0  0  0  0  0  0
   55.5590   79.6490   26.8380 C   0  0  0  0  0  0  0  0  0  0  0  0
   56.6950   80.6010   26.5000 C   0  0  0  0  0  0  0  0  0  0  0  0
   56.3060   81.9580   25.8880 C   0  0  0  0  0  0  0  0  0  0  0  0
   56.2200   82.8940   26.9790 N   0  0  0  0  0  0  0  0  0  0  0  0
   56.9740   82.4900   28.0560 C   0  0  0  0  0  0  0  0  0  0  0  0
   57.2440   83.1480   29.0340 O   0  0  0  0  0  0  0  0  0  0  0  0
   57.4060   81.0630   27.7490 C   0  0  0  0  0  0  0  0  0  0  0  0
   58.2540   80.3080   28.3800 N   0  0  0  0  0  0  0  0  0  0  0  0
   58.8760   80.7910   29.5350 C   0  0  0  0  0  0  0  0  0  0  0  0
   58.3930   80.4370   30.7920 C   0  0  0  0  0  0  0  0  0  0  0  0
   59.0030   80.9520   31.9290 C   0  0  0  0  0  0  0  0  0  0  0  0
   58.5400   80.6070   33.1380 F   0  0  0  0  0  0  0  0  0  0  0  0
   60.0820   81.8260   31.8370 C   0  0  0  0  0  0  0  0  0  0  0  0
   60.5700   82.2060   30.5810 C   0  0  0  0  0  0  0  0  0  0  0  0
   61.7390   83.1480   30.4620 C   0  0  0  0  0  0  0  0  0  0  0  0
   63.1220   82.5250   31.4140 S   0  0  0  0  0  0  0  0  0  0  0  0
   63.7730   81.3560   30.6450 N   0  0  0  0  0  0  0  0  0  0  0  0
   62.7260   82.4630   32.8070 O   0  0  0  0  0  0  0  0  0  0  0  0
   64.2730   83.9480   31.3500 C   0  0  0  0  0  0  0  0  0  0  0  0
   63.6570   85.2910   31.0770 C   0  0  0  0  0  0  0  0  0  0  0  0
   64.4060   84.5700   29.9850 C   0  0  0  0  0  0  0  0  0  0  0  0
   59.9470   81.6880   29.4330 C   0  0  0  0  0  0  0  0  0  0  0  0
   55.4530   78.9950   28.0780 C   0  0  0  0  0  0  0  0  0  0  0  0
   54.3970   78.1160   28.3400 C   0  0  0  0  0  0  0  0  0  0  0  0
   54.2100   77.4450   29.5210 O   0  0  0  0  0  0  0  0  0  0  0  0
   55.1840   76.4830   29.8950 C   0  0  0  0  0  0  0  0  0  0  0  0
   53.4540   77.8670   27.3290 C   0  0  0  0  0  0  0  0  0  0  0  0
   52.3900   77.0310   27.5960 O   0  0  0  0  0  0  0  0  0  0  0  0
   52.7010   75.7060   27.1710 C   0  0  0  0  0  0  0  0  0  0  0  0
   52.9176   79.8107   23.9402 H   0  0  0  0  0  0  0  0  0  0  0  0
   53.4866   78.2218   23.3252 H   0  0  0  0  0  0  0  0  0  0  0  0
   51.7325   78.6091   23.3252 H   0  0  0  0  0  0  0  0  0  0  0  0
   54.6850   79.8698   24.8637 H   0  0  0  0  0  0  0  0  0  0  0  0
   57.2711   79.9893   25.7901 H   0  0  0  0  0  0  0  0  0  0  0  0
   57.0722   82.2832   25.1688 H   0  0  0  0  0  0  0  0  0  0  0  0
   55.3497   81.8895   25.3488 H   0  0  0  0  0  0  0  0  0  0  0  0
   56.0090   83.8800   26.8790 H   0  0  0  0  0  0  0  0  0  0  0  0
   57.5350   79.7548   30.8841 H   0  0  0  0  0  0  0  0  0  0  0  0
   60.5515   82.2183   32.7512 H   0  0  0  0  0  0  0  0  0  0  0  0
   62.0325   83.2337   29.4053 H   0  0  0  0  0  0  0  0  0  0  0  0
   61.4489   84.1363   30.8483 H   0  0  0  0  0  0  0  0  0  0  0  0
   63.1980   80.5130   30.7280 H   0  0  0  0  0  0  0  0  0  0  0  0
   64.9633   83.5631   32.1151 H   0  0  0  0  0  0  0  0  0  0  0  0
   62.5633   85.3928   31.0189 H   0  0  0  0  0  0  0  0  0  0  0  0
   63.7251   86.2864   31.5402 H   0  0  0  0  0  0  0  0  0  0  0  0
   63.8591   84.1447   29.1306 H   0  0  0  0  0  0  0  0  0  0  0  0
   65.2470   84.8198   29.3214 H   0  0  0  0  0  0  0  0  0  0  0  0
   60.3060   81.9917   28.4386 H   0  0  0  0  0  0  0  0  0  0  0  0
   56.2116   79.1772   28.8535 H   0  0  0  0  0  0  0  0  0  0  0  0
   55.2412   76.4265   30.9921 H   0  0  0  0  0  0  0  0  0  0  0  0
   54.9017   75.4994   29.4914 H   0  0  0  0  0  0  0  0  0  0  0  0
   56.1640   76.7774   29.4914 H   0  0  0  0  0  0  0  0  0  0  0  0
   52.8516   75.0643   28.0517 H   0  0  0  0  0  0  0  0  0  0  0  0
   51.8713   75.3105   26.5667 H   0  0  0  0  0  0  0  0  0  0  0  0
   53.6200   75.7210   26.5667 H   0  0  0  0  0  0  0  0  0  0  0  0
  1  2  1  0
  2  3  1  0
  3  4  2  0
  4  5  1  0
  5  6  1  0
  6  7  1  0
  7  8  1  0
  8  9  1  0
  9 10  2  0
  9 11  1  0
 11 12  2  3
 12 13  1  0
 13 14  1  0
 14 15  2  0
 15 16  1  0
 15 17  1  0
 17 18  2  0
 18 19  1  0
 19 20  1  0
 20 21  2  0
 20 22  2  0
 20 23  1  0
 23 24  1  0
 24 25  1  0
 18 26  1  0
  5 27  2  0
 27 28  1  0
 28 29  1  0
 29 30  1  0
 28 31  2  0
 31 32  1  0
 32 33  1  0
 31  3  1  0
 11  6  1  0
 26 13  2  0
 25 23  1  0
  1 34  1  0
  1 35  1  0
  1 36  1  0
  4 37  1  0
  6 38  1  0
  7 39  1  0
  7 40  1  0
  8 41  1  0
 14 42  1  0
 17 43  1  0
 19 44  1  0
 19 45  1  0
 21 46  1  0
 23 47  1  0
 24 48  1  0
 24 49  1  0
 25 50  1  0
 25 51  1  0
 26 52  1  0
 27 53  1  0
 30 54  1  0
 30 55  1  0
 30 56  1  0
 33 57  1  0
 33 58  1  0
 33 59  1  0
M  END
>  <meeko>  (1) 
{"is_sidechain": false}

>  <smiles>  (1) 
COc1cc(C2CNC(=O)C2=Nc2cc(F)cc(CS(=N)(=O)C3CC3)c2)cc(OC)c1OC

>  <vina_score>  (1) 
-6.561

>  <job_id>  (1) 
831504bdba786873

$$$$
