
     RDKit          3D

 59 61  0  0  0  0  0  0  0  0999 V2000
   52.9780   81.6280   23.8540 C   0  0  0  0  0  0  0  0  0  0  0  0
   53.2420   80.4090   24.6620 C   0  0  0  0  0  0  0  0  0  0  0  0
   52.8570   79.2040   24.2950 N   0  0  0  0  0  0  0  0  0  0  0  0
   53.3090   78.3570   25.2600 C   0  0  0  0  0  0  0  0  0  0  0  0
   53.9790   79.0340   26.2610 C   0  0  0  0  0  0  0  0  0  0  0  0
   54.6320   78.4960   27.4490 C   0  0  0  0  0  0  0  0  0  0  0  0
   53.9940   77.6070   28.2810 C   0  0  0  0  0  0  0  0  0  0  0  0
   54.7350   77.1730   29.3470 C   0  0  0  0  0  0  0  0  0  0  0  0
   55.9990   77.5670   29.5800 N   0  0  0  0  0  0  0  0  0  0  0  0
   56.5520   78.4230   28.7090 C   0  0  0  0  0  0  0  0  0  0  0  0
   57.8590   78.8810   28.8490 N   0  0  0  0  0  0  0  0  0  0  0  0
   58.4680   79.8630   29.6380 C   0  0  0  0  0  0  0  0  0  0  0  0
   58.1860   79.8840   31.0150 C   0  0  0  0  0  0  0  0  0  0  0  0
   58.7700   80.8250   31.8680 C   0  0  0  0  0  0  0  0  0  0  0  0
   59.6640   81.7600   31.3450 C   0  0  0  0  0  0  0  0  0  0  0  0
   60.4010   82.9630   32.4240 S   0  0  0  0  0  0  0  0  0  0  0  0
   61.8240   82.7140   32.4810 O   0  0  0  0  0  0  0  0  0  0  0  0
   59.8790   84.2570   32.0390 O   0  0  0  0  0  0  0  0  0  0  0  0
   59.6860   82.5520   33.9230 N   0  0  0  0  0  0  0  0  0  0  0  0
   60.7740   82.0770   34.7910 O   0  0  0  0  0  0  0  0  0  0  0  0
   60.6440   80.4680   35.1220 S   0  0  0  0  0  0  0  0  0  0  0  0
   61.2060   79.7120   34.0250 O   0  0  0  0  0  0  0  0  0  0  0  0
   59.2830   80.2320   35.5720 O   0  0  0  0  0  0  0  0  0  0  0  0
   61.7730   80.4110   36.5240 C   0  0  0  0  0  0  0  0  0  0  0  0
   63.1320   79.8420   36.1280 C   0  0  0  0  0  0  0  0  0  0  0  0
   61.9270   81.8050   37.1230 C   0  0  0  0  0  0  0  0  0  0  0  0
   59.9540   81.7710   29.9830 C   0  0  0  0  0  0  0  0  0  0  0  0
   59.3630   80.8200   29.1420 C   0  0  0  0  0  0  0  0  0  0  0  0
   55.8990   78.9090   27.6430 N   0  0  0  0  0  0  0  0  0  0  0  0
   53.8970   80.3690   25.8820 N   0  0  0  0  0  0  0  0  0  0  0  0
   54.3920   81.5010   26.6680 C   0  0  0  0  0  0  0  0  0  0  0  0
   55.5670   82.2000   25.9860 C   0  0  0  0  0  0  0  0  0  0  0  0
   53.3090   82.4970   27.0930 C   0  0  0  0  0  0  0  0  0  0  0  0
   52.7935   82.4799   24.5251 H   0  0  0  0  0  0  0  0  0  0  0  0
   53.8503   81.8433   23.2194 H   0  0  0  0  0  0  0  0  0  0  0  0
   52.0947   81.4631   23.2194 H   0  0  0  0  0  0  0  0  0  0  0  0
   53.1593   77.2673   25.2448 H   0  0  0  0  0  0  0  0  0  0  0  0
   52.9625   77.2688   28.1030 H   0  0  0  0  0  0  0  0  0  0  0  0
   54.2719   76.4647   30.0498 H   0  0  0  0  0  0  0  0  0  0  0  0
   58.4680   78.2870   28.3070 H   0  0  0  0  0  0  0  0  0  0  0  0
   57.4889   79.1420   31.4314 H   0  0  0  0  0  0  0  0  0  0  0  0
   58.5272   80.8283   32.9409 H   0  0  0  0  0  0  0  0  0  0  0  0
   58.9730   81.8130   33.8230 H   0  0  0  0  0  0  0  0  0  0  0  0
   61.3445   79.7385   37.2817 H   0  0  0  0  0  0  0  0  0  0  0  0
   63.7069   79.6013   37.0344 H   0  0  0  0  0  0  0  0  0  0  0  0
   62.9876   78.9288   35.5321 H   0  0  0  0  0  0  0  0  0  0  0  0
   63.6813   80.5857   35.5321 H   0  0  0  0  0  0  0  0  0  0  0  0
   61.9193   81.7353   38.2208 H   0  0  0  0  0  0  0  0  0  0  0  0
   62.8791   82.2440   36.7901 H   0  0  0  0  0  0  0  0  0  0  0  0
   61.0937   82.4412   36.7901 H   0  0  0  0  0  0  0  0  0  0  0  0
   60.6433   82.5223   29.5702 H   0  0  0  0  0  0  0  0  0  0  0  0
   59.6066   80.8244   28.0693 H   0  0  0  0  0  0  0  0  0  0  0  0
   54.7587   81.0565   27.6050 H   0  0  0  0  0  0  0  0  0  0  0  0
   56.2468   82.6044   26.7504 H   0  0  0  0  0  0  0  0  0  0  0  0
   56.1092   81.4775   25.3583 H   0  0  0  0  0  0  0  0  0  0  0  0
   55.1909   83.0213   25.3583 H   0  0  0  0  0  0  0  0  0  0  0  0
   53.2615   82.5406   28.1911 H   0  0  0  0  0  0  0  0  0  0  0  0
   53.5518   83.4940   26.6966 H   0  0  0  0  0  0  0  0  0  0  0  0
   52.3358   82.1718   26.6966 H   0  0  0  0  0  0  0  0  0  0  0  0
  1  2  1  0
  2  3  2  0
  3  4  1  0
  4  5  2  0
  5  6  1  0
  6  7  1  0
  7  8  2  0
  8  9  1  0
  9 10  2  0
 10 11  1  0
 11 12  1  0
 12 13  1  0
 13 14  2  0
 14 15  1  0
 15 16  1  0
 16 17  2  0
 16 18  2  0
 16 19  1  0
 19 20  1  0
 20 21  1  0
 21 22  2  0
 21 23  2  0
 21 24  1  0
 24 25  1  0
 24 26  1  0
 15 27  2  0
 27 28  1  0
 10 29  1  0
  5 30  1  0
 30 31  1  0
 31 32  1  0
 31 33  1  0
 30  2  1  0
 29  6  2  0
 28 12  2  0
  1 34  1  0
  1 35  1  0
  1 36  1  0
  4 37  1  0
  7 38  1  0
  8 39  1  0
 11 40  1  0
 13 41  1  0
 14 42  1  0
 19 43  1  0
 24 44  1  0
 25 45  1  0
 25 46  1  0
 25 47  1  0
 26 48  1  0
 26 49  1  0
 26 50  1  0
 27 51  1  0
 28 52  1  0
 31 53  1  0
 32 54  1  0
 32 55  1  0
 32 56  1  0
 33 57  1  0
 33 58  1  0
 33 59  1  0
M  END
>  <meeko>  (1) 
{"is_sidechain": false}

>  <smiles>  (1) 
Cc1ncc(-c2ccnc(Nc3ccc(S(=O)(=O)NOS(=O)(=O)C(C)C)cc3)n2)n1C(C)C

>  <vina_score>  (1) 
-8.845

>  <job_id>  (1) 
835d7b22590a536f

$$$$
