
     RDKit          3D

 52 53  0  0  0  0  0  0  0  0999 V2000
   55.1500   81.3780   25.8900 C   0  0  0  0  0  0  0  0  0  0  0  0
   54.4660   80.0570   25.7680 C   0  0  1  0  0  0  0  0  0  0  0  0
   54.0440   79.5340   27.0130 O   0  0  0  0  0  0  0  0  0  0  0  0
   54.8410   78.6920   27.7500 C   0  0  0  0  0  0  0  0  0  0  0  0
   56.0910   79.0790   28.0280 N   0  0  0  0  0  0  0  0  0  0  0  0
   56.9170   78.2780   28.7560 C   0  0  0  0  0  0  0  0  0  0  0  0
   58.2220   78.7310   29.0200 N   0  0  0  0  0  0  0  0  0  0  0  0
   58.5980   79.8900   29.7230 C   0  0  0  0  0  0  0  0  0  0  0  0
   59.3130   80.9400   29.2160 C   0  0  0  0  0  0  0  0  0  0  0  0
   59.6530   82.0630   29.9710 C   0  0  0  0  0  0  0  0  0  0  0  0
   59.2650   82.1430   31.2890 C   0  0  0  0  0  0  0  0  0  0  0  0
   59.6690   83.5330   32.2790 S   0  0  0  0  0  0  0  0  0  0  0  0
   60.8720   84.1820   31.6610 O   0  0  0  0  0  0  0  0  0  0  0  0
   60.1120   82.9640   33.6160 O   0  0  0  0  0  0  0  0  0  0  0  0
   58.3240   84.6120   32.4780 S   0  0  0  0  0  6  0  0  0  0  0  0
   58.1850   85.3290   30.9020 N   0  0  0  0  0  0  0  0  0  0  0  0
   57.2260   85.0450   32.8040 O   0  0  0  0  0  0  0  0  0  0  0  0
   58.6360   85.5480   33.5970 O   0  0  0  0  0  0  0  0  0  0  0  0
   58.5540   81.1130   31.8200 C   0  0  0  0  0  0  0  0  0  0  0  0
   58.2260   80.0200   31.0730 C   0  0  0  0  0  0  0  0  0  0  0  0
   56.4020   77.1140   29.1590 N   0  0  0  0  0  0  0  0  0  0  0  0
   55.1630   76.6790   28.9100 C   0  0  0  0  0  0  0  0  0  0  0  0
   54.3340   77.4960   28.1740 C   0  0  0  0  0  0  0  0  0  0  0  0
   52.9350   77.1420   27.8220 C   0  0  0  0  0  0  0  0  0  0  0  0
   52.7340   77.0600   26.4640 F   0  0  0  0  0  0  0  0  0  0  0  0
   52.7110   75.8510   28.3120 F   0  0  0  0  0  0  0  0  0  0  0  0
   52.0350   77.9750   28.4220 F   0  0  0  0  0  0  0  0  0  0  0  0
   53.2290   80.1030   24.8880 C   0  0  0  0  0  0  0  0  0  0  0  0
   53.3120   78.9690   23.8920 C   0  0  0  0  0  0  0  0  0  0  0  0
   53.3120   81.4350   24.1300 C   0  0  0  0  0  0  0  0  0  0  0  0
   52.0930   80.0430   25.6690 O   0  0  0  0  0  0  0  0  0  0  0  0
   55.2791   81.6272   26.9536 H   0  0  0  0  0  0  0  0  0  0  0  0
   56.1351   81.3272   25.4032 H   0  0  0  0  0  0  0  0  0  0  0  0
   54.5400   82.1531   25.4032 H   0  0  0  0  0  0  0  0  0  0  0  0
   55.2368   79.4143   25.3177 H   0  0  0  0  0  0  0  0  0  0  0  0
   59.0200   78.1330   28.6490 H   0  0  0  0  0  0  0  0  0  0  0  0
   59.6347   80.8971   28.1650 H   0  0  0  0  0  0  0  0  0  0  0  0
   60.2290   82.8814   29.5145 H   0  0  0  0  0  0  0  0  0  0  0  0
   56.9920   84.0510   32.7960 H   0  0  0  0  0  0  0  0  0  0  0  0
   59.0620   85.0930   30.3930 H   0  0  0  0  0  0  0  0  0  0  0  0
   58.1780   86.3630   31.0880 H   0  0  0  0  0  0  0  0  0  0  0  0
   58.9070   85.2170   34.4760 H   0  0  0  0  0  0  0  0  0  0  0  0
   58.2372   81.1621   32.8722 H   0  0  0  0  0  0  0  0  0  0  0  0
   57.6492   79.2103   31.5438 H   0  0  0  0  0  0  0  0  0  0  0  0
   54.8175   75.7024   29.2801 H   0  0  0  0  0  0  0  0  0  0  0  0
   53.3820   78.0124   24.4305 H   0  0  0  0  0  0  0  0  0  0  0  0
   52.4114   78.9691   23.2603 H   0  0  0  0  0  0  0  0  0  0  0  0
   54.2029   79.1003   23.2603 H   0  0  0  0  0  0  0  0  0  0  0  0
   53.3637   82.2644   24.8507 H   0  0  0  0  0  0  0  0  0  0  0  0
   54.2123   81.4418   23.4980 H   0  0  0  0  0  0  0  0  0  0  0  0
   52.4195   81.5535   23.4980 H   0  0  0  0  0  0  0  0  0  0  0  0
   51.9010   79.1020   25.9680 H   0  0  0  0  0  0  0  0  0  0  0  0
  1  2  1  0
  2  3  1  0
  3  4  1  0
  4  5  2  0
  5  6  1  0
  6  7  1  0
  7  8  1  0
  8  9  1  0
  9 10  2  0
 10 11  1  0
 11 12  1  0
 12 13  2  0
 12 14  2  0
 12 15  1  0
 15 16  1  0
 15 17  2  0
 15 18  1  0
 11 19  2  0
 19 20  1  0
  6 21  2  0
 21 22  1  0
 22 23  2  0
 23 24  1  0
 24 25  1  0
 24 26  1  0
 24 27  1  0
  2 28  1  0
 28 29  1  0
 28 30  1  0
 28 31  1  0
 23  4  1  0
 20  8  2  0
  1 32  1  0
  1 33  1  0
  1 34  1  0
  2 35  1  6
  7 36  1  0
  9 37  1  0
 10 38  1  0
 15 39  1  0
 16 40  1  0
 16 41  1  0
 18 42  1  0
 19 43  1  0
 20 44  1  0
 22 45  1  0
 29 46  1  0
 29 47  1  0
 29 48  1  0
 30 49  1  0
 30 50  1  0
 30 51  1  0
 31 52  1  0
M  END
>  <meeko>  (1) 
{"is_sidechain": false}

>  <smiles>  (1) 
C[C@@H](Oc1nc(Nc2ccc(S(=O)(=O)[SH](N)(=O)O)cc2)ncc1C(F)(F)F)C(C)(C)O

>  <vina_score>  (1) 
-8.360

>  <job_id>  (1) 
8370fd5d4e1c4009

$$$$
