
     RDKit          3D

 49 51  0  0  0  0  0  0  0  0999 V2000
   52.3860   80.7620   25.0370 C   0  0  0  0  0  0  0  0  0  0  0  0
   53.1080   80.3330   26.2220 N   0  0  0  0  0  0  0  0  0  0  0  0
   53.3100   81.3450   27.2500 C   0  0  0  0  0  0  0  0  0  0  0  0
   53.3810   78.9750   26.3740 C   0  0  0  0  0  0  0  0  0  0  0  0
   52.9350   78.1040   25.6310 O   0  0  0  0  0  0  0  0  0  0  0  0
   54.2710   78.5340   27.4730 C   0  0  0  0  0  0  0  0  0  0  0  0
   53.8570   77.4780   28.2930 C   0  0  0  0  0  0  0  0  0  0  0  0
   54.6840   77.0270   29.3230 C   0  0  0  0  0  0  0  0  0  0  0  0
   55.9350   77.6160   29.5200 C   0  0  0  0  0  0  0  0  0  0  0  0
   56.3680   78.6460   28.6710 C   0  0  0  0  0  0  0  0  0  0  0  0
   57.6930   79.2980   28.8490 C   0  0  0  0  0  0  0  0  0  0  0  0
   58.5600   79.0670   28.0160 O   0  0  0  0  0  0  0  0  0  0  0  0
   57.8020   80.0820   29.9820 N   0  0  0  0  0  0  0  0  0  0  0  0
   58.9140   80.8530   30.3860 C   0  0  0  0  0  0  0  0  0  0  0  0
   59.5780   81.7490   29.5550 C   0  0  0  0  0  0  0  0  0  0  0  0
   60.6550   82.4820   30.0470 C   0  0  0  0  0  0  0  0  0  0  0  0
   61.0740   82.3200   31.3710 C   0  0  0  0  0  0  0  0  0  0  0  0
   60.4420   81.4230   32.2420 C   0  0  0  0  0  0  0  0  0  0  0  0
   60.8510   81.2610   33.5540 N   0  0  0  0  0  0  0  0  0  0  0  0
   59.9750   80.6450   34.5670 C   0  0  0  0  0  0  0  0  0  0  0  0
   60.8120   79.8570   35.5890 C   0  0  0  0  0  0  0  0  0  0  0  0
   61.7870   80.6490   36.2790 O   0  0  0  0  0  0  0  0  0  0  0  0
   62.3010   81.7310   35.4890 C   0  0  0  0  0  0  0  0  0  0  0  0
   62.2440   81.4840   33.9720 C   0  0  0  0  0  0  0  0  0  0  0  0
   59.3530   80.7040   31.7150 C   0  0  0  0  0  0  0  0  0  0  0  0
   55.5330   79.1070   27.6470 C   0  0  0  0  0  0  0  0  0  0  0  0
   51.4763   81.3025   25.3375 H   0  0  0  0  0  0  0  0  0  0  0  0
   53.0262   81.4263   24.4380 H   0  0  0  0  0  0  0  0  0  0  0  0
   52.1087   79.8821   24.4380 H   0  0  0  0  0  0  0  0  0  0  0  0
   53.2176   80.8820   28.2435 H   0  0  0  0  0  0  0  0  0  0  0  0
   54.3133   81.7828   27.1414 H   0  0  0  0  0  0  0  0  0  0  0  0
   52.5517   82.1344   27.1414 H   0  0  0  0  0  0  0  0  0  0  0  0
   52.8790   77.0031   28.1256 H   0  0  0  0  0  0  0  0  0  0  0  0
   54.3510   76.2089   29.9786 H   0  0  0  0  0  0  0  0  0  0  0  0
   56.5812   77.2723   30.3411 H   0  0  0  0  0  0  0  0  0  0  0  0
   57.0300   80.0570   30.6350 H   0  0  0  0  0  0  0  0  0  0  0  0
   59.2533   81.8783   28.5120 H   0  0  0  0  0  0  0  0  0  0  0  0
   61.1789   83.1923   29.3904 H   0  0  0  0  0  0  0  0  0  0  0  0
   61.9238   82.9136   31.7391 H   0  0  0  0  0  0  0  0  0  0  0  0
   59.4135   81.4338   35.0890 H   0  0  0  0  0  0  0  0  0  0  0  0
   59.2794   79.9553   34.0665 H   0  0  0  0  0  0  0  0  0  0  0  0
   60.1291   79.4228   36.3341 H   0  0  0  0  0  0  0  0  0  0  0  0
   61.3653   79.0919   35.0247 H   0  0  0  0  0  0  0  0  0  0  0  0
   61.7129   82.6329   35.7144 H   0  0  0  0  0  0  0  0  0  0  0  0
   63.3634   81.8393   35.7528 H   0  0  0  0  0  0  0  0  0  0  0  0
   62.6475   82.3606   33.4441 H   0  0  0  0  0  0  0  0  0  0  0  0
   62.8430   80.5946   33.7267 H   0  0  0  0  0  0  0  0  0  0  0  0
   58.8228   79.9961   32.3690 H   0  0  0  0  0  0  0  0  0  0  0  0
   55.8688   79.9166   26.9824 H   0  0  0  0  0  0  0  0  0  0  0  0
  1  2  1  0
  2  3  1  0
  2  4  1  0
  4  5  2  0
  4  6  1  0
  6  7  2  0
  7  8  1  0
  8  9  2  0
  9 10  1  0
 10 11  1  0
 11 12  2  0
 11 13  1  0
 13 14  1  0
 14 15  1  0
 15 16  2  0
 16 17  1  0
 17 18  2  0
 18 19  1  0
 19 20  1  0
 20 21  1  0
 21 22  1  0
 22 23  1  0
 23 24  1  0
 18 25  1  0
 10 26  2  0
 26  6  1  0
 25 14  2  0
 24 19  1  0
  1 27  1  0
  1 28  1  0
  1 29  1  0
  3 30  1  0
  3 31  1  0
  3 32  1  0
  7 33  1  0
  8 34  1  0
  9 35  1  0
 13 36  1  0
 15 37  1  0
 16 38  1  0
 17 39  1  0
 20 40  1  0
 20 41  1  0
 21 42  1  0
 21 43  1  0
 23 44  1  0
 23 45  1  0
 24 46  1  0
 24 47  1  0
 25 48  1  0
 26 49  1  0
M  END
>  <meeko>  (1) 
{"is_sidechain": false}

>  <smiles>  (1) 
CN(C)C(=O)c1cccc(C(=O)Nc2cccc(N3CCOCC3)c2)c1

>  <vina_score>  (1) 
-8.650

>  <job_id>  (1) 
83f5ae47d6071495

$$$$
