
     RDKit          3D

 44 47  0  0  0  0  0  0  0  0999 V2000
   53.5770   80.9460   25.6960 C   0  0  0  0  0  0  0  0  0  0  0  0
   54.8690   81.1920   25.7090 N   0  0  0  0  0  0  0  0  0  0  0  0
   55.3760   80.3670   26.6790 C   0  0  0  0  0  0  0  0  0  0  0  0
   56.6670   80.2840   27.0430 N   0  0  0  0  0  0  0  0  0  0  0  0
   56.8910   79.3850   28.0200 C   0  0  0  0  0  0  0  0  0  0  0  0
   58.3190   79.2430   28.5080 C   0  0  0  0  0  0  0  0  0  0  0  0
   58.9950   80.5040   28.4360 O   0  0  0  0  0  0  0  0  0  0  0  0
   59.2730   81.0800   29.7140 C   0  0  0  0  0  0  0  0  0  0  0  0
   58.5640   82.4280   29.8830 C   0  0  0  0  0  0  0  0  0  0  0  0
   58.7070   82.9730   31.3000 C   0  0  0  0  0  0  0  0  0  0  0  0
   58.2370   81.9650   32.3440 C   0  0  0  0  0  0  0  0  0  0  0  0
   58.9420   80.6220   32.1840 C   0  0  0  0  0  0  0  0  0  0  0  0
   58.7890   80.0790   30.7680 C   0  0  0  0  0  0  0  0  0  0  0  0
   55.9630   78.5860   28.6090 N   0  0  0  0  0  0  0  0  0  0  0  0
   54.6760   78.7120   28.2450 C   0  0  0  0  0  0  0  0  0  0  0  0
   53.6830   77.9470   28.8120 O   0  0  0  0  0  0  0  0  0  0  0  0
   53.7370   76.5590   28.4650 C   0  0  0  0  0  0  0  0  0  0  0  0
   52.5390   76.1840   27.6440 C   0  0  0  0  0  0  0  0  0  0  0  0
   52.5640   76.3620   26.1470 C   0  0  0  0  0  0  0  0  0  0  0  0
   52.5600   74.9790   26.7380 C   0  0  0  0  0  0  0  0  0  0  0  0
   54.3760   79.6090   27.2510 C   0  0  0  0  0  0  0  0  0  0  0  0
   53.2310   79.9950   26.6160 N   0  0  0  0  0  0  0  0  0  0  0  0
   52.8612   81.4449   25.0261 H   0  0  0  0  0  0  0  0  0  0  0  0
   58.3133   78.8930   29.5508 H   0  0  0  0  0  0  0  0  0  0  0  0
   58.8452   78.5172   27.8706 H   0  0  0  0  0  0  0  0  0  0  0  0
   60.3502   81.2757   29.8203 H   0  0  0  0  0  0  0  0  0  0  0  0
   59.0016   83.1506   29.1784 H   0  0  0  0  0  0  0  0  0  0  0  0
   57.4930   82.2769   29.6827 H   0  0  0  0  0  0  0  0  0  0  0  0
   59.7650   83.2105   31.4852 H   0  0  0  0  0  0  0  0  0  0  0  0
   58.0794   83.8723   31.3857 H   0  0  0  0  0  0  0  0  0  0  0  0
   58.4509   82.3634   33.3468 H   0  0  0  0  0  0  0  0  0  0  0  0
   57.1573   81.8056   32.2072 H   0  0  0  0  0  0  0  0  0  0  0  0
   60.0120   80.7510   32.4042 H   0  0  0  0  0  0  0  0  0  0  0  0
   58.4837   79.9051   32.8812 H   0  0  0  0  0  0  0  0  0  0  0  0
   59.3780   79.1545   30.6766 H   0  0  0  0  0  0  0  0  0  0  0  0
   57.7201   79.8890   30.5906 H   0  0  0  0  0  0  0  0  0  0  0  0
   54.6508   76.3648   27.8843 H   0  0  0  0  0  0  0  0  0  0  0  0
   53.7433   75.9583   29.3865 H   0  0  0  0  0  0  0  0  0  0  0  0
   51.8889   76.5220   28.4644 H   0  0  0  0  0  0  0  0  0  0  0  0
   51.6731   76.7386   25.6232 H   0  0  0  0  0  0  0  0  0  0  0  0
   53.2092   76.9030   25.4392 H   0  0  0  0  0  0  0  0  0  0  0  0
   51.6661   74.3445   26.6463 H   0  0  0  0  0  0  0  0  0  0  0  0
   53.2011   74.0904   26.6411 H   0  0  0  0  0  0  0  0  0  0  0  0
   52.3020   79.6380   26.7960 H   0  0  0  0  0  0  0  0  0  0  0  0
  1  2  2  0
  2  3  1  0
  3  4  2  0
  4  5  1  0
  5  6  1  0
  6  7  1  0
  7  8  1  0
  8  9  1  0
  9 10  1  0
 10 11  1  0
 11 12  1  0
 12 13  1  0
  5 14  2  0
 14 15  1  0
 15 16  1  0
 16 17  1  0
 17 18  1  0
 18 19  1  0
 19 20  1  0
 15 21  2  0
 21 22  1  0
 22  1  1  0
 21  3  1  0
 13  8  1  0
 20 18  1  0
  1 23  1  0
  6 24  1  0
  6 25  1  0
  8 26  1  0
  9 27  1  0
  9 28  1  0
 10 29  1  0
 10 30  1  0
 11 31  1  0
 11 32  1  0
 12 33  1  0
 12 34  1  0
 13 35  1  0
 13 36  1  0
 17 37  1  0
 17 38  1  0
 18 39  1  0
 19 40  1  0
 19 41  1  0
 20 42  1  0
 20 43  1  0
 22 44  1  0
M  END
>  <meeko>  (1) 
{"is_sidechain": false}

>  <smiles>  (1) 
c1nc2nc(COC3CCCCC3)nc(OCC3CC3)c2[nH]1

>  <vina_score>  (1) 
-7.531

>  <job_id>  (1) 
8423bbe27564fe58

$$$$
