
     RDKit          3D

 44 45  0  0  0  0  0  0  0  0999 V2000
   58.1850   80.8390   32.1360 C   0  0  0  0  0  0  0  0  0  0  0  0
   58.6320   79.8580   31.0640 C   0  0  0  0  0  0  0  0  0  0  0  0
   58.1960   80.2550   29.6450 C   0  0  1  0  0  0  0  0  0  0  0  0
   59.3650   80.8000   28.8240 C   0  0  0  0  0  0  0  0  0  0  0  0
   57.7360   79.0860   28.9460 O   0  0  0  0  0  0  0  0  0  0  0  0
   56.4840   79.1690   28.3660 C   0  0  0  0  0  0  0  0  0  0  0  0
   56.2350   80.1720   27.5050 N   0  0  0  0  0  0  0  0  0  0  0  0
   55.0120   80.2280   26.9680 C   0  0  0  0  0  0  0  0  0  0  0  0
   54.6420   81.2130   26.0580 N   0  0  0  0  0  0  0  0  0  0  0  0
   53.7580   81.2650   24.9760 C   0  0  0  0  0  0  0  0  0  0  0  0
   53.4040   80.1520   24.2060 C   0  0  0  0  0  0  0  0  0  0  0  0
   52.5060   80.2610   23.1370 C   0  0  0  0  0  0  0  0  0  0  0  0
   51.9520   81.5020   22.8280 C   0  0  0  0  0  0  0  0  0  0  0  0
   50.8120   81.6340   21.4780 S   0  0  0  0  0  0  0  0  0  0  0  0
   49.3730   81.1480   22.2050 N   0  0  0  0  0  0  0  0  0  0  0  0
   50.6850   83.0270   21.1210 O   0  0  0  0  0  0  0  0  0  0  0  0
   51.1250   80.6070   20.5110 O   0  0  0  0  0  0  0  0  0  0  0  0
   52.2700   82.6260   23.5880 C   0  0  0  0  0  0  0  0  0  0  0  0
   53.1700   82.5000   24.6510 C   0  0  0  0  0  0  0  0  0  0  0  0
   54.0470   79.3430   27.2550 N   0  0  0  0  0  0  0  0  0  0  0  0
   54.3070   78.3540   28.1260 C   0  0  0  0  0  0  0  0  0  0  0  0
   53.2450   77.4660   28.3680 N   0  0  0  0  0  0  0  0  0  0  0  0
   55.5480   78.2240   28.7230 C   0  0  0  0  0  0  0  0  0  0  0  0
   55.8760   77.1590   29.6810 C   0  0  0  0  0  0  0  0  0  0  0  0
   55.5020   76.0010   29.5220 O   0  0  0  0  0  0  0  0  0  0  0  0
   58.3804   80.4101   33.1299 H   0  0  0  0  0  0  0  0  0  0  0  0
   58.7429   81.7807   32.0269 H   0  0  0  0  0  0  0  0  0  0  0  0
   57.1083   81.0359   32.0269 H   0  0  0  0  0  0  0  0  0  0  0  0
   59.7300   79.7960   31.0857 H   0  0  0  0  0  0  0  0  0  0  0  0
   58.1535   78.8937   31.2901 H   0  0  0  0  0  0  0  0  0  0  0  0
   57.4148   81.0220   29.7520 H   0  0  0  0  0  0  0  0  0  0  0  0
   60.1501   81.1660   29.5020 H   0  0  0  0  0  0  0  0  0  0  0  0
   59.7725   79.9990   28.1897 H   0  0  0  0  0  0  0  0  0  0  0  0
   59.0135   81.6271   28.1897 H   0  0  0  0  0  0  0  0  0  0  0  0
   55.1820   82.0450   26.2540 H   0  0  0  0  0  0  0  0  0  0  0  0
   53.8401   79.1709   24.4452 H   0  0  0  0  0  0  0  0  0  0  0  0
   52.2396   79.3730   22.5450 H   0  0  0  0  0  0  0  0  0  0  0  0
   48.5440   81.5390   21.7580 H   0  0  0  0  0  0  0  0  0  0  0  0
   49.4130   81.3750   23.2000 H   0  0  0  0  0  0  0  0  0  0  0  0
   51.8182   83.6013   23.3544 H   0  0  0  0  0  0  0  0  0  0  0  0
   53.4240   83.3888   25.2473 H   0  0  0  0  0  0  0  0  0  0  0  0
   52.8550   77.1670   27.4740 H   0  0  0  0  0  0  0  0  0  0  0  0
   53.6210   76.5990   28.7560 H   0  0  0  0  0  0  0  0  0  0  0  0
   56.4758   77.4077   30.5689 H   0  0  0  0  0  0  0  0  0  0  0  0
  1  2  1  0
  2  3  1  0
  3  4  1  0
  3  5  1  0
  5  6  1  0
  6  7  1  0
  7  8  2  0
  8  9  1  0
  9 10  1  0
 10 11  1  0
 11 12  2  0
 12 13  1  0
 13 14  1  0
 14 15  1  0
 14 16  2  0
 14 17  2  0
 13 18  2  0
 18 19  1  0
  8 20  1  0
 20 21  2  0
 21 22  1  0
 21 23  1  0
 23 24  1  0
 24 25  2  0
 23  6  2  0
 19 10  2  0
  1 26  1  0
  1 27  1  0
  1 28  1  0
  2 29  1  0
  2 30  1  0
  3 31  1  1
  4 32  1  0
  4 33  1  0
  4 34  1  0
  9 35  1  0
 11 36  1  0
 12 37  1  0
 15 38  1  0
 15 39  1  0
 18 40  1  0
 19 41  1  0
 22 42  1  0
 22 43  1  0
 24 44  1  0
M  END
>  <meeko>  (1) 
{"is_sidechain": false}

>  <smiles>  (1) 
CC[C@@H](C)Oc1nc(Nc2ccc(S(N)(=O)=O)cc2)nc(N)c1C=O

>  <vina_score>  (1) 
-7.929

>  <job_id>  (1) 
842a4fa5d39afdc0

$$$$
