
     RDKit          3D

 32 33  0  0  0  0  0  0  0  0999 V2000
   52.1850   75.0270   26.1580 C   0  0  0  0  0  0  0  0  0  0  0  0
   52.6980   75.3570   27.5530 C   0  0  0  0  0  0  0  0  0  0  0  0
   52.9620   76.8500   27.7600 C   0  0  0  0  0  0  0  0  0  0  0  0
   54.2060   77.1330   28.5380 C   0  0  0  0  0  0  0  0  0  0  0  0
   54.8200   78.3890   28.7680 C   0  0  0  0  0  0  0  0  0  0  0  0
   55.9270   78.1100   29.5310 C   0  0  0  0  0  0  0  0  0  0  0  0
   56.8860   78.9620   30.0430 N   0  0  0  0  0  0  0  0  0  0  0  0
   57.8930   79.4820   29.2460 C   0  0  0  0  0  0  0  0  0  0  0  0
   58.0500   79.2210   28.0560 O   0  0  0  0  0  0  0  0  0  0  0  0
   58.8510   80.3970   29.9280 C   0  0  0  0  0  0  0  0  0  0  0  0
   59.6820   81.2700   29.2110 C   0  0  0  0  0  0  0  0  0  0  0  0
   60.5690   82.1070   29.8950 C   0  0  0  0  0  0  0  0  0  0  0  0
   60.6310   82.0660   31.2880 C   0  0  0  0  0  0  0  0  0  0  0  0
   61.8320   83.2000   32.2060 Br  0  0  0  0  0  0  0  0  0  0  0  0
   59.8200   81.1890   32.0060 C   0  0  0  0  0  0  0  0  0  0  0  0
   58.9340   80.3510   31.3260 C   0  0  0  0  0  0  0  0  0  0  0  0
   55.9210   76.7520   29.7120 N   0  0  0  0  0  0  0  0  0  0  0  0
   54.8870   76.1340   29.1120 N   0  0  0  0  0  0  0  0  0  0  0  0
   51.2623   74.4334   26.2375 H   0  0  0  0  0  0  0  0  0  0  0  0
   51.9751   75.9599   25.6143 H   0  0  0  0  0  0  0  0  0  0  0  0
   52.9469   74.4492   25.6143 H   0  0  0  0  0  0  0  0  0  0  0  0
   51.9481   75.0293   28.2880 H   0  0  0  0  0  0  0  0  0  0  0  0
   53.6574   74.8343   27.6809 H   0  0  0  0  0  0  0  0  0  0  0  0
   53.0522   77.3277   26.7733 H   0  0  0  0  0  0  0  0  0  0  0  0
   52.1185   77.2502   28.3417 H   0  0  0  0  0  0  0  0  0  0  0  0
   54.4830   79.3739   28.4125 H   0  0  0  0  0  0  0  0  0  0  0  0
   56.8670   79.1450   31.0380 H   0  0  0  0  0  0  0  0  0  0  0  0
   59.6361   81.2962   28.1123 H   0  0  0  0  0  0  0  0  0  0  0  0
   61.2173   82.7971   29.3352 H   0  0  0  0  0  0  0  0  0  0  0  0
   59.8777   81.1571   33.1040 H   0  0  0  0  0  0  0  0  0  0  0  0
   58.2988   79.6521   31.8899 H   0  0  0  0  0  0  0  0  0  0  0  0
   56.6010   76.2080   30.2390 H   0  0  0  0  0  0  0  0  0  0  0  0
  1  2  1  0
  2  3  1  0
  3  4  1  0
  4  5  1  0
  5  6  2  0
  6  7  1  0
  7  8  1  0
  8  9  2  0
  8 10  1  0
 10 11  1  0
 11 12  2  0
 12 13  1  0
 13 14  1  0
 13 15  2  0
 15 16  1  0
  6 17  1  0
 17 18  1  0
 18  4  2  0
 16 10  2  0
  1 19  1  0
  1 20  1  0
  1 21  1  0
  2 22  1  0
  2 23  1  0
  3 24  1  0
  3 25  1  0
  5 26  1  0
  7 27  1  0
 11 28  1  0
 12 29  1  0
 15 30  1  0
 16 31  1  0
 17 32  1  0
M  END
>  <meeko>  (1) 
{"is_sidechain": false}

>  <smiles>  (1) 
CCCc1cc(NC(=O)c2ccc(Br)cc2)[nH]n1

>  <vina_score>  (1) 
-7.266

>  <job_id>  (1) 
842b7316b46b4848

$$$$
