
     RDKit          3D

 46 48  0  0  0  0  0  0  0  0999 V2000
   52.5600   81.7320   21.6330 C   0  0  0  0  0  0  0  0  0  0  0  0
   51.5970   80.9830   22.5410 C   0  0  0  0  0  0  0  0  0  0  0  0
   52.2970   80.3990   23.7400 C   0  0  0  0  0  0  0  0  0  0  0  0
   53.0520   79.2280   23.6240 C   0  0  0  0  0  0  0  0  0  0  0  0
   53.6850   78.6770   24.7430 C   0  0  0  0  0  0  0  0  0  0  0  0
   53.5790   79.2790   26.0070 C   0  0  0  0  0  0  0  0  0  0  0  0
   54.2650   78.7060   27.1800 C   0  0  0  0  0  0  0  0  0  0  0  0
   55.4250   79.3360   27.6870 C   0  0  0  0  0  0  0  0  0  0  0  0
   56.1450   78.8550   28.7960 C   0  0  0  0  0  0  0  0  0  0  0  0
   57.2770   79.5000   29.2640 N   0  0  0  0  0  0  0  0  0  0  0  0
   57.4410   79.8260   30.6920 C   0  0  0  0  0  0  0  0  0  0  0  0
   58.9350   79.8570   31.0950 C   0  0  0  0  0  0  0  0  0  0  0  0
   59.8000   80.7550   30.3020 N   0  0  0  0  0  0  0  0  0  0  0  0
   60.0280   82.0290   30.9780 C   0  0  0  0  0  0  0  0  0  0  0  0
   59.2450   80.9770   28.9490 C   0  0  0  0  0  0  0  0  0  0  0  0
   58.4300   79.7850   28.3940 C   0  0  0  0  0  0  0  0  0  0  0  0
   55.6560   77.6870   29.3960 C   0  0  0  0  0  0  0  0  0  0  0  0
   54.5100   77.0360   28.9250 C   0  0  0  0  0  0  0  0  0  0  0  0
   53.8240   77.5460   27.8270 C   0  0  0  0  0  0  0  0  0  0  0  0
   52.7100   76.8930   27.3710 O   0  0  0  0  0  0  0  0  0  0  0  0
   52.8130   80.4500   26.1140 C   0  0  0  0  0  0  0  0  0  0  0  0
   52.1780   81.0030   24.9970 C   0  0  0  0  0  0  0  0  0  0  0  0
   53.2809   82.2927   22.2460 H   0  0  0  0  0  0  0  0  0  0  0  0
   53.0992   81.0136   20.9981 H   0  0  0  0  0  0  0  0  0  0  0  0
   51.9964   82.4315   20.9981 H   0  0  0  0  0  0  0  0  0  0  0  0
   50.8195   81.6798   22.8873 H   0  0  0  0  0  0  0  0  0  0  0  0
   51.1583   80.1550   21.9648 H   0  0  0  0  0  0  0  0  0  0  0  0
   53.1490   78.7361   22.6449 H   0  0  0  0  0  0  0  0  0  0  0  0
   54.2761   77.7561   24.6308 H   0  0  0  0  0  0  0  0  0  0  0  0
   55.7829   80.2491   27.1888 H   0  0  0  0  0  0  0  0  0  0  0  0
   56.9969   80.8132   30.8872 H   0  0  0  0  0  0  0  0  0  0  0  0
   56.9380   79.0481   31.2852 H   0  0  0  0  0  0  0  0  0  0  0  0
   58.9937   80.1748   32.1465 H   0  0  0  0  0  0  0  0  0  0  0  0
   59.3136   78.8408   30.9109 H   0  0  0  0  0  0  0  0  0  0  0  0
   60.0007   81.8763   32.0670 H   0  0  0  0  0  0  0  0  0  0  0  0
   61.0116   82.4270   30.6881 H   0  0  0  0  0  0  0  0  0  0  0  0
   59.2434   82.7435   30.6881 H   0  0  0  0  0  0  0  0  0  0  0  0
   58.5865   81.8573   28.9865 H   0  0  0  0  0  0  0  0  0  0  0  0
   60.1028   81.1146   28.2743 H   0  0  0  0  0  0  0  0  0  0  0  0
   58.0696   80.0315   27.3844 H   0  0  0  0  0  0  0  0  0  0  0  0
   59.0776   78.8966   28.3587 H   0  0  0  0  0  0  0  0  0  0  0  0
   56.1887   77.2692   30.2630 H   0  0  0  0  0  0  0  0  0  0  0  0
   54.1521   76.1224   29.4222 H   0  0  0  0  0  0  0  0  0  0  0  0
   52.8050   76.7320   26.4200 H   0  0  0  0  0  0  0  0  0  0  0  0
   52.7102   80.9413   27.0928 H   0  0  0  0  0  0  0  0  0  0  0  0
   51.5804   81.9199   25.1074 H   0  0  0  0  0  0  0  0  0  0  0  0
  1  2  1  0
  2  3  1  0
  3  4  1  0
  4  5  2  0
  5  6  1  0
  6  7  1  0
  7  8  1  0
  8  9  2  0
  9 10  1  0
 10 11  1  0
 11 12  1  0
 12 13  1  0
 13 14  1  0
 13 15  1  0
 15 16  1  0
  9 17  1  0
 17 18  2  0
 18 19  1  0
 19 20  1  0
  6 21  2  0
 21 22  1  0
 22  3  2  0
 19  7  2  0
 16 10  1  0
  1 23  1  0
  1 24  1  0
  1 25  1  0
  2 26  1  0
  2 27  1  0
  4 28  1  0
  5 29  1  0
  8 30  1  0
 11 31  1  0
 11 32  1  0
 12 33  1  0
 12 34  1  0
 14 35  1  0
 14 36  1  0
 14 37  1  0
 15 38  1  0
 15 39  1  0
 16 40  1  0
 16 41  1  0
 17 42  1  0
 18 43  1  0
 20 44  1  0
 21 45  1  0
 22 46  1  0
M  END
>  <meeko>  (1) 
{"is_sidechain": false}

>  <smiles>  (1) 
CCc1ccc(-c2cc(N3CCN(C)CC3)ccc2O)cc1

>  <vina_score>  (1) 
-8.093

>  <job_id>  (1) 
845aa1089eaf7021

$$$$
