
     RDKit          3D

 33 34  0  0  0  0  0  0  0  0999 V2000
   62.6090   79.8600   34.2420 C   0  0  0  0  0  0  0  0  0  0  0  0
   61.3220   80.0980   33.6460 N   0  0  0  0  0  0  0  0  0  0  0  0
   60.5400   81.1580   34.0200 C   0  0  0  0  0  0  0  0  0  0  0  0
   60.9050   82.0480   34.7750 O   0  0  0  0  0  0  0  0  0  0  0  0
   59.3110   81.0500   33.4060 O   0  0  0  0  0  0  0  0  0  0  0  0
   59.4430   80.9890   32.0200 C   0  0  0  0  0  0  0  0  0  0  0  0
   58.5940   80.1790   31.2890 C   0  0  0  0  0  0  0  0  0  0  0  0
   58.7010   80.2210   29.9000 C   0  0  0  0  0  0  0  0  0  0  0  0
   57.7990   79.3520   29.0950 C   0  0  0  0  0  0  0  0  0  0  0  0
   58.1240   79.0940   27.9430 O   0  0  0  0  0  0  0  0  0  0  0  0
   56.6850   78.8780   29.7670 N   0  0  0  0  0  0  0  0  0  0  0  0
   55.6480   78.0800   29.2400 C   0  0  0  0  0  0  0  0  0  0  0  0
   55.4920   76.7190   29.5160 C   0  0  0  0  0  0  0  0  0  0  0  0
   54.4380   75.9950   28.9460 C   0  0  0  0  0  0  0  0  0  0  0  0
   53.5380   76.6300   28.0950 C   0  0  0  0  0  0  0  0  0  0  0  0
   52.2440   75.7380   27.3950 Cl  0  0  0  0  0  0  0  0  0  0  0  0
   53.6830   77.9830   27.8070 C   0  0  0  0  0  0  0  0  0  0  0  0
   54.7360   78.7040   28.3770 C   0  0  0  0  0  0  0  0  0  0  0  0
   59.6570   81.0470   29.3030 C   0  0  0  0  0  0  0  0  0  0  0  0
   60.4380   81.8360   30.1310 C   0  0  0  0  0  0  0  0  0  0  0  0
   60.3300   81.8490   31.4740 N   0  0  0  0  0  0  0  0  0  0  0  0
   62.5145   79.8775   35.3378 H   0  0  0  0  0  0  0  0  0  0  0  0
   62.9851   78.8771   33.9220 H   0  0  0  0  0  0  0  0  0  0  0  0
   63.3118   80.6434   33.9220 H   0  0  0  0  0  0  0  0  0  0  0  0
   60.8510   79.3540   33.1490 H   0  0  0  0  0  0  0  0  0  0  0  0
   57.8613   79.5256   31.7852 H   0  0  0  0  0  0  0  0  0  0  0  0
   56.6360   79.0550   30.7610 H   0  0  0  0  0  0  0  0  0  0  0  0
   56.2025   76.2128   30.1860 H   0  0  0  0  0  0  0  0  0  0  0  0
   54.3211   74.9245   29.1706 H   0  0  0  0  0  0  0  0  0  0  0  0
   52.9719   78.4836   27.1334 H   0  0  0  0  0  0  0  0  0  0  0  0
   54.8505   79.7733   28.1459 H   0  0  0  0  0  0  0  0  0  0  0  0
   59.7851   81.0698   28.2107 H   0  0  0  0  0  0  0  0  0  0  0  0
   61.1900   82.4899   29.6653 H   0  0  0  0  0  0  0  0  0  0  0  0
  1  2  1  0
  2  3  1  0
  3  4  2  0
  3  5  1  0
  5  6  1  0
  6  7  2  0
  7  8  1  0
  8  9  1  0
  9 10  2  0
  9 11  1  0
 11 12  1  0
 12 13  1  0
 13 14  2  0
 14 15  1  0
 15 16  1  0
 15 17  2  0
 17 18  1  0
  8 19  2  0
 19 20  1  0
 20 21  2  0
 21  6  1  0
 18 12  2  0
  1 22  1  0
  1 23  1  0
  1 24  1  0
  2 25  1  0
  7 26  1  0
 11 27  1  0
 13 28  1  0
 14 29  1  0
 17 30  1  0
 18 31  1  0
 19 32  1  0
 20 33  1  0
M  END
>  <meeko>  (1) 
{"is_sidechain": false}

>  <smiles>  (1) 
CNC(=O)Oc1cc(C(=O)Nc2ccc(Cl)cc2)ccn1

>  <vina_score>  (1) 
-7.942

>  <job_id>  (1) 
84868095015190e9

$$$$
