
     RDKit          3D

 38 40  0  0  0  0  0  0  0  0999 V2000
   61.6210   81.8260   30.3140 N   0  0  0  0  0  0  0  0  0  0  0  0
   60.2960   82.1630   30.3540 C   0  0  0  0  0  0  0  0  0  0  0  0
   59.9490   83.3010   30.6450 O   0  0  0  0  0  0  0  0  0  0  0  0
   59.3090   81.1130   29.9860 C   0  0  0  0  0  0  0  0  0  0  0  0
   58.6060   80.4720   31.0090 C   0  0  0  0  0  0  0  0  0  0  0  0
   57.6650   79.4820   30.7030 C   0  0  0  0  0  0  0  0  0  0  0  0
   57.4020   79.1060   29.3760 C   0  0  0  0  0  0  0  0  0  0  0  0
   56.4670   78.0930   29.1430 N   0  0  0  0  0  0  0  0  0  0  0  0
   55.2770   78.0230   28.4240 C   0  0  0  0  0  0  0  0  0  0  0  0
   54.5270   76.9410   28.6790 N   0  0  0  0  0  0  0  0  0  0  0  0
   53.3760   76.8160   28.0120 C   0  0  0  0  0  0  0  0  0  0  0  0
   52.5960   75.6980   28.3110 N   0  0  0  0  0  0  0  0  0  0  0  0
   52.9350   77.7470   27.1050 C   0  0  0  0  0  0  0  0  0  0  0  0
   53.7590   78.8300   26.8850 C   0  0  0  0  0  0  0  0  0  0  0  0
   53.4330   79.8980   25.9310 C   0  0  0  0  0  0  0  0  0  0  0  0
   53.2190   81.2200   26.3460 C   0  0  0  0  0  0  0  0  0  0  0  0
   53.3100   81.5440   27.6450 F   0  0  0  0  0  0  0  0  0  0  0  0
   52.8990   82.2410   25.4470 C   0  0  0  0  0  0  0  0  0  0  0  0
   52.7840   81.9590   24.0890 C   0  0  0  0  0  0  0  0  0  0  0  0
   52.9910   80.6570   23.6440 C   0  0  0  0  0  0  0  0  0  0  0  0
   53.3100   79.6470   24.5560 C   0  0  0  0  0  0  0  0  0  0  0  0
   53.5250   78.4170   24.0630 F   0  0  0  0  0  0  0  0  0  0  0  0
   54.9320   78.9630   27.5370 N   0  0  0  0  0  0  0  0  0  0  0  0
   58.1360   79.7390   28.3670 C   0  0  0  0  0  0  0  0  0  0  0  0
   59.0790   80.7330   28.6620 C   0  0  0  0  0  0  0  0  0  0  0  0
   62.2710   82.5920   30.4380 H   0  0  0  0  0  0  0  0  0  0  0  0
   61.9510   81.0150   29.8120 H   0  0  0  0  0  0  0  0  0  0  0  0
   58.7925   80.7460   32.0579 H   0  0  0  0  0  0  0  0  0  0  0  0
   57.1194   78.9876   31.5203 H   0  0  0  0  0  0  0  0  0  0  0  0
   56.5730   77.2440   29.6790 H   0  0  0  0  0  0  0  0  0  0  0  0
   51.6040   75.8940   28.2290 H   0  0  0  0  0  0  0  0  0  0  0  0
   52.8840   74.9450   27.6920 H   0  0  0  0  0  0  0  0  0  0  0  0
   51.9743   77.6348   26.5811 H   0  0  0  0  0  0  0  0  0  0  0  0
   52.7382   83.2661   25.8122 H   0  0  0  0  0  0  0  0  0  0  0  0
   52.5321   82.7570   23.3750 H   0  0  0  0  0  0  0  0  0  0  0  0
   52.9035   80.4222   22.5729 H   0  0  0  0  0  0  0  0  0  0  0  0
   57.9692   79.4501   27.3188 H   0  0  0  0  0  0  0  0  0  0  0  0
   59.6398   81.2155   27.8479 H   0  0  0  0  0  0  0  0  0  0  0  0
  1  2  1  0
  2  3  2  0
  2  4  1  0
  4  5  1  0
  5  6  2  0
  6  7  1  0
  7  8  1  0
  8  9  1  0
  9 10  1  0
 10 11  2  0
 11 12  1  0
 11 13  1  0
 13 14  2  0
 14 15  1  0
 15 16  2  0
 16 17  1  0
 16 18  1  0
 18 19  2  0
 19 20  1  0
 20 21  2  0
 21 22  1  0
 14 23  1  0
  7 24  2  0
 24 25  1  0
 25  4  2  0
 23  9  2  0
 21 15  1  0
  1 26  1  0
  1 27  1  0
  5 28  1  0
  6 29  1  0
  8 30  1  0
 12 31  1  0
 12 32  1  0
 13 33  1  0
 18 34  1  0
 19 35  1  0
 20 36  1  0
 24 37  1  0
 25 38  1  0
M  END
>  <meeko>  (1) 
{"is_sidechain": false}

>  <smiles>  (1) 
NC(=O)c1ccc(Nc2nc(N)cc(-c3c(F)cccc3F)n2)cc1

>  <vina_score>  (1) 
-9.069

>  <job_id>  (1) 
84da4a92ff037ba7

$$$$
