
     RDKit          3D

 37 39  0  0  0  0  0  0  0  0999 V2000
   54.0600   78.3570   25.9040 O   0  0  0  0  0  0  0  0  0  0  0  0
   54.3740   79.4240   26.4250 C   0  0  0  0  0  0  0  0  0  0  0  0
   55.4940   79.4340   27.3930 C   0  0  0  0  0  0  0  0  0  0  0  0
   55.4560   78.6510   28.5470 C   0  0  0  0  0  0  0  0  0  0  0  0
   56.5350   78.6760   29.4360 C   0  0  0  0  0  0  0  0  0  0  0  0
   57.6800   79.4490   29.1740 C   0  0  0  0  0  0  0  0  0  0  0  0
   58.7080   79.4890   30.1420 N   0  0  0  0  0  0  0  0  0  0  0  0
   59.0090   80.5010   31.0830 C   0  0  0  0  0  0  0  0  0  0  0  0
   58.1750   80.6070   32.2030 C   0  0  0  0  0  0  0  0  0  0  0  0
   58.4160   81.5910   33.1620 C   0  0  0  0  0  0  0  0  0  0  0  0
   59.4830   82.4500   32.9750 C   0  0  0  0  0  0  0  0  0  0  0  0
   59.7490   83.4070   33.8720 F   0  0  0  0  0  0  0  0  0  0  0  0
   60.2640   82.2990   31.8470 C   0  0  0  0  0  0  0  0  0  0  0  0
   60.0440   81.3500   30.9030 N   0  0  0  0  0  0  0  0  0  0  0  0
   57.6880   80.2370   28.0160 C   0  0  0  0  0  0  0  0  0  0  0  0
   56.6150   80.2170   27.1170 C   0  0  0  0  0  0  0  0  0  0  0  0
   53.7420   80.6200   26.1420 N   0  0  0  0  0  0  0  0  0  0  0  0
   52.6450   80.6630   25.1910 C   0  0  0  0  0  0  0  0  0  0  0  0
   52.1850   82.1120   25.2150 C   0  0  0  0  0  0  0  0  0  0  0  0
   53.4780   82.8690   25.4930 C   0  0  0  0  0  0  0  0  0  0  0  0
   54.1980   81.9610   26.4820 C   0  0  0  0  0  0  0  0  0  0  0  0
   54.5817   78.0172   28.7565 H   0  0  0  0  0  0  0  0  0  0  0  0
   56.4872   78.0791   30.3587 H   0  0  0  0  0  0  0  0  0  0  0  0
   59.5710   79.0940   29.7860 H   0  0  0  0  0  0  0  0  0  0  0  0
   57.3296   79.9141   32.3266 H   0  0  0  0  0  0  0  0  0  0  0  0
   57.7707   81.6815   34.0482 H   0  0  0  0  0  0  0  0  0  0  0  0
   61.1114   82.9860   31.7058 H   0  0  0  0  0  0  0  0  0  0  0  0
   58.5535   80.8836   27.8091 H   0  0  0  0  0  0  0  0  0  0  0  0
   56.6558   80.8169   26.1959 H   0  0  0  0  0  0  0  0  0  0  0  0
   52.9895   80.3799   24.1854 H   0  0  0  0  0  0  0  0  0  0  0  0
   51.8379   79.9611   25.4477 H   0  0  0  0  0  0  0  0  0  0  0  0
   51.7527   82.4071   24.2475 H   0  0  0  0  0  0  0  0  0  0  0  0
   51.3965   82.3076   25.9566 H   0  0  0  0  0  0  0  0  0  0  0  0
   54.0669   82.9978   24.5729 H   0  0  0  0  0  0  0  0  0  0  0  0
   53.3118   83.8858   25.8783 H   0  0  0  0  0  0  0  0  0  0  0  0
   55.2885   82.0431   26.3629 H   0  0  0  0  0  0  0  0  0  0  0  0
   53.9810   82.2248   27.5276 H   0  0  0  0  0  0  0  0  0  0  0  0
  1  2  2  0
  2  3  1  0
  3  4  1  0
  4  5  2  0
  5  6  1  0
  6  7  1  0
  7  8  1  0
  8  9  2  0
  9 10  1  0
 10 11  2  0
 11 12  1  0
 11 13  1  0
 13 14  2  0
  6 15  2  0
 15 16  1  0
  2 17  1  0
 17 18  1  0
 18 19  1  0
 19 20  1  0
 20 21  1  0
 16  3  2  0
 21 17  1  0
 14  8  1  0
  4 22  1  0
  5 23  1  0
  7 24  1  0
  9 25  1  0
 10 26  1  0
 13 27  1  0
 15 28  1  0
 16 29  1  0
 18 30  1  0
 18 31  1  0
 19 32  1  0
 19 33  1  0
 20 34  1  0
 20 35  1  0
 21 36  1  0
 21 37  1  0
M  END
>  <meeko>  (1) 
{"is_sidechain": false}

>  <smiles>  (1) 
O=C(c1ccc(Nc2ccc(F)cn2)cc1)N1CCCC1

>  <vina_score>  (1) 
-7.745

>  <job_id>  (1) 
84eafc702421246d

$$$$
