
     RDKit          3D

 45 47  0  0  0  0  0  0  0  0999 V2000
   53.2980   78.3270   26.7260 C   0  0  0  0  0  0  0  0  0  0  0  0
   54.2440   77.6540   27.5480 O   0  0  0  0  0  0  0  0  0  0  0  0
   55.2890   78.3980   28.0200 C   0  0  0  0  0  0  0  0  0  0  0  0
   55.9210   79.4460   27.3540 C   0  0  0  0  0  0  0  0  0  0  0  0
   56.9860   80.1260   27.9600 C   0  0  0  0  0  0  0  0  0  0  0  0
   57.4420   79.7760   29.2410 C   0  0  0  0  0  0  0  0  0  0  0  0
   58.5600   80.4960   29.8740 C   0  0  0  0  0  0  0  0  0  0  0  0
   59.3400   81.4040   29.1510 C   0  0  0  0  0  0  0  0  0  0  0  0
   60.4040   82.0850   29.7520 C   0  0  0  0  0  0  0  0  0  0  0  0
   60.7300   81.8970   31.1080 C   0  0  0  0  0  0  0  0  0  0  0  0
   61.8510   82.5530   31.6760 N   0  0  0  0  0  0  0  0  0  0  0  0
   63.1030   82.1070   31.0200 C   0  0  0  0  0  0  0  0  0  0  0  0
   64.2770   82.9200   31.5560 C   0  0  0  0  0  0  0  0  0  0  0  0
   64.1210   84.4090   31.2410 C   0  0  0  0  0  0  0  0  0  0  0  0
   62.6640   84.8170   31.0200 C   0  0  0  0  0  0  0  0  0  0  0  0
   61.7100   84.0090   31.8950 C   0  0  0  0  0  0  0  0  0  0  0  0
   59.9410   80.9820   31.8490 C   0  0  0  0  0  0  0  0  0  0  0  0
   60.1370   80.6900   33.3040 C   0  0  0  0  0  0  0  0  0  0  0  0
   61.1510   79.8430   33.6450 N   0  0  0  0  0  0  0  0  0  0  0  0
   59.4300   81.1930   34.1700 O   0  0  0  0  0  0  0  0  0  0  0  0
   58.8800   80.2960   31.2250 C   0  0  0  0  0  0  0  0  0  0  0  0
   56.7960   78.7180   29.8970 C   0  0  0  0  0  0  0  0  0  0  0  0
   55.7330   78.0390   29.2930 C   0  0  0  0  0  0  0  0  0  0  0  0
   52.5658   78.8479   27.3605 H   0  0  0  0  0  0  0  0  0  0  0  0
   53.8190   79.0586   26.0909 H   0  0  0  0  0  0  0  0  0  0  0  0
   52.7777   77.5949   26.0909 H   0  0  0  0  0  0  0  0  0  0  0  0
   55.5830   79.7405   26.3495 H   0  0  0  0  0  0  0  0  0  0  0  0
   57.4748   80.9510   27.4210 H   0  0  0  0  0  0  0  0  0  0  0  0
   59.1127   81.5861   28.0902 H   0  0  0  0  0  0  0  0  0  0  0  0
   61.0010   82.7852   29.1493 H   0  0  0  0  0  0  0  0  0  0  0  0
   63.2683   81.0405   31.2328 H   0  0  0  0  0  0  0  0  0  0  0  0
   63.0202   82.2562   29.9333 H   0  0  0  0  0  0  0  0  0  0  0  0
   64.3330   82.7898   32.6468 H   0  0  0  0  0  0  0  0  0  0  0  0
   65.1956   82.5597   31.0698 H   0  0  0  0  0  0  0  0  0  0  0  0
   64.5254   84.9908   32.0824 H   0  0  0  0  0  0  0  0  0  0  0  0
   64.6670   84.6096   30.3074 H   0  0  0  0  0  0  0  0  0  0  0  0
   62.5524   85.8841   31.2628 H   0  0  0  0  0  0  0  0  0  0  0  0
   62.4104   84.6222   29.9675 H   0  0  0  0  0  0  0  0  0  0  0  0
   61.9234   84.2310   32.9510 H   0  0  0  0  0  0  0  0  0  0  0  0
   60.6818   84.2935   31.6268 H   0  0  0  0  0  0  0  0  0  0  0  0
   61.5820   79.2950   32.9040 H   0  0  0  0  0  0  0  0  0  0  0  0
   61.2060   79.5270   34.6010 H   0  0  0  0  0  0  0  0  0  0  0  0
   58.2853   79.5828   31.8146 H   0  0  0  0  0  0  0  0  0  0  0  0
   57.1303   78.4179   30.9011 H   0  0  0  0  0  0  0  0  0  0  0  0
   55.2415   77.2127   29.8275 H   0  0  0  0  0  0  0  0  0  0  0  0
  1  2  1  0
  2  3  1  0
  3  4  1  0
  4  5  2  0
  5  6  1  0
  6  7  1  0
  7  8  1  0
  8  9  2  0
  9 10  1  0
 10 11  1  0
 11 12  1  0
 12 13  1  0
 13 14  1  0
 14 15  1  0
 15 16  1  0
 10 17  2  0
 17 18  1  0
 18 19  1  0
 18 20  2  0
 17 21  1  0
  6 22  2  0
 22 23  1  0
 23  3  2  0
 21  7  2  0
 16 11  1  0
  1 24  1  0
  1 25  1  0
  1 26  1  0
  4 27  1  0
  5 28  1  0
  8 29  1  0
  9 30  1  0
 12 31  1  0
 12 32  1  0
 13 33  1  0
 13 34  1  0
 14 35  1  0
 14 36  1  0
 15 37  1  0
 15 38  1  0
 16 39  1  0
 16 40  1  0
 19 41  1  0
 19 42  1  0
 21 43  1  0
 22 44  1  0
 23 45  1  0
M  END
>  <meeko>  (1) 
{"is_sidechain": false}

>  <smiles>  (1) 
COc1ccc(-c2ccc(N3CCCCC3)c(C(N)=O)c2)cc1

>  <vina_score>  (1) 
-6.893

>  <job_id>  (1) 
84ed9d693d554c86

$$$$
