
     RDKit          3D

 46 49  0  0  0  0  0  0  0  0999 V2000
   58.9340   78.7100   28.3940 O   0  0  0  0  0  0  0  0  0  0  0  0
   58.0590   79.5080   28.7380 C   0  0  0  0  0  0  0  0  0  0  0  0
   58.4070   80.6940   29.6450 C   0  0  0  0  0  0  0  0  0  0  0  0
   58.5670   80.2310   31.1020 C   0  0  0  0  0  0  0  0  0  0  0  0
   58.8650   81.3950   32.0460 C   0  0  0  0  0  0  0  0  0  0  0  0
   59.7830   82.4540   31.4340 C   0  0  0  0  0  0  0  0  0  0  0  0
   60.5950   81.9020   30.2710 C   0  0  0  0  0  0  0  0  0  0  0  0
   59.6850   81.3990   29.1480 C   0  0  0  0  0  0  0  0  0  0  0  0
   56.7480   79.3660   28.2960 N   0  0  0  0  0  0  0  0  0  0  0  0
   55.6920   78.6330   28.9920 C   0  0  0  0  0  0  0  0  0  0  0  0
   54.7450   77.9430   28.0100 C   0  0  0  0  0  0  0  0  0  0  0  0
   54.2560   78.8950   26.9690 C   0  0  0  0  0  0  0  0  0  0  0  0
   53.0840   78.7010   26.2730 C   0  0  0  0  0  0  0  0  0  0  0  0
   52.6380   79.5360   25.3170 N   0  0  0  0  0  0  0  0  0  0  0  0
   53.3980   80.6060   25.0430 C   0  0  0  0  0  0  0  0  0  0  0  0
   52.9090   81.4630   24.0520 N   0  0  0  0  0  0  0  0  0  0  0  0
   52.4910   80.9110   22.7700 C   0  0  0  0  0  0  0  0  0  0  0  0
   52.5620   81.7320   21.5140 C   0  0  0  0  0  0  0  0  0  0  0  0
   51.2280   81.3970   22.1140 C   0  0  0  0  0  0  0  0  0  0  0  0
   54.5640   80.8660   25.6510 N   0  0  0  0  0  0  0  0  0  0  0  0
   54.9890   80.0070   26.6030 C   0  0  0  0  0  0  0  0  0  0  0  0
   56.3090   80.3240   27.2700 C   0  0  0  0  0  0  0  0  0  0  0  0
   57.5796   81.4178   29.6053 H   0  0  0  0  0  0  0  0  0  0  0  0
   57.6349   79.7434   31.4235 H   0  0  0  0  0  0  0  0  0  0  0  0
   59.4173   79.5344   31.1445 H   0  0  0  0  0  0  0  0  0  0  0  0
   57.9135   81.8744   32.3195 H   0  0  0  0  0  0  0  0  0  0  0  0
   59.3873   80.9786   32.9200 H   0  0  0  0  0  0  0  0  0  0  0  0
   59.1677   83.2908   31.0719 H   0  0  0  0  0  0  0  0  0  0  0  0
   60.4863   82.7847   32.2125 H   0  0  0  0  0  0  0  0  0  0  0  0
   61.2440   82.6980   29.8771 H   0  0  0  0  0  0  0  0  0  0  0  0
   61.1957   81.0562   30.6369 H   0  0  0  0  0  0  0  0  0  0  0  0
   59.3876   82.2603   28.5318 H   0  0  0  0  0  0  0  0  0  0  0  0
   60.2610   80.6521   28.5820 H   0  0  0  0  0  0  0  0  0  0  0  0
   56.1525   77.8716   29.6387 H   0  0  0  0  0  0  0  0  0  0  0  0
   55.1082   79.3517   29.5858 H   0  0  0  0  0  0  0  0  0  0  0  0
   55.2789   77.1168   27.5177 H   0  0  0  0  0  0  0  0  0  0  0  0
   53.8772   77.5658   28.5710 H   0  0  0  0  0  0  0  0  0  0  0  0
   52.4787   77.8141   26.5118 H   0  0  0  0  0  0  0  0  0  0  0  0
   52.3110   82.1320   24.5230 H   0  0  0  0  0  0  0  0  0  0  0  0
   52.8875   79.9321   23.0777 H   0  0  0  0  0  0  0  0  0  0  0  0
   52.9385   82.7648   21.5530 H   0  0  0  0  0  0  0  0  0  0  0  0
   53.0243   81.6004   20.5246 H   0  0  0  0  0  0  0  0  0  0  0  0
   50.6271   82.1841   22.5931 H   0  0  0  0  0  0  0  0  0  0  0  0
   50.3082   80.9182   21.7470 H   0  0  0  0  0  0  0  0  0  0  0  0
   57.0826   80.3617   26.4889 H   0  0  0  0  0  0  0  0  0  0  0  0
   56.1598   81.2795   27.7942 H   0  0  0  0  0  0  0  0  0  0  0  0
  1  2  2  0
  2  3  1  0
  3  4  1  0
  4  5  1  0
  5  6  1  0
  6  7  1  0
  7  8  1  0
  2  9  1  0
  9 10  1  0
 10 11  1  0
 11 12  1  0
 12 13  2  0
 13 14  1  0
 14 15  2  0
 15 16  1  0
 16 17  1  0
 17 18  1  0
 18 19  1  0
 15 20  1  0
 20 21  2  0
 21 22  1  0
  8  3  1  0
 22  9  1  0
 21 12  1  0
 19 17  1  0
  3 23  1  0
  4 24  1  0
  4 25  1  0
  5 26  1  0
  5 27  1  0
  6 28  1  0
  6 29  1  0
  7 30  1  0
  7 31  1  0
  8 32  1  0
  8 33  1  0
 10 34  1  0
 10 35  1  0
 11 36  1  0
 11 37  1  0
 13 38  1  0
 16 39  1  0
 17 40  1  0
 18 41  1  0
 18 42  1  0
 19 43  1  0
 19 44  1  0
 22 45  1  0
 22 46  1  0
M  END
>  <meeko>  (1) 
{"is_sidechain": false}

>  <smiles>  (1) 
O=C(C1CCCCC1)N1CCc2cnc(NC3CC3)nc2C1

>  <vina_score>  (1) 
-7.846

>  <job_id>  (1) 
858d85d8566f7b65

$$$$
