
     RDKit          3D

 47 49  0  0  0  0  0  0  0  0999 V2000
   53.6340   78.9840   25.5710 C   0  0  0  0  0  0  0  0  0  0  0  0
   53.3750   79.1290   26.9630 O   0  0  0  0  0  0  0  0  0  0  0  0
   54.0220   78.2650   27.8050 C   0  0  0  0  0  0  0  0  0  0  0  0
   53.6100   76.9740   28.1300 C   0  0  0  0  0  0  0  0  0  0  0  0
   54.3760   76.2000   29.0030 C   0  0  0  0  0  0  0  0  0  0  0  0
   55.5540   76.7090   29.5560 C   0  0  0  0  0  0  0  0  0  0  0  0
   55.9720   78.0040   29.2470 C   0  0  0  0  0  0  0  0  0  0  0  0
   57.1540   78.5840   29.7490 N   0  0  0  0  0  0  0  0  0  0  0  0
   57.9170   79.5710   29.1660 C   0  0  0  0  0  0  0  0  0  0  0  0
   57.7750   79.9880   28.0210 O   0  0  0  0  0  0  0  0  0  0  0  0
   58.9330   80.0460   30.0050 N   0  0  0  0  0  0  0  0  0  0  0  0
   58.7250   80.2420   31.4430 C   0  0  0  0  0  0  0  0  0  0  0  0
   58.1850   81.6640   31.7230 C   0  0  0  0  0  0  0  0  0  0  0  0
   58.9270   82.7650   31.0900 N   0  0  0  0  0  0  0  0  0  0  0  0
   59.9370   83.4230   31.9160 C   0  0  0  0  0  0  0  0  0  0  0  0
   61.3250   82.8270   31.9380 C   0  0  0  0  0  0  0  0  0  0  0  0
   61.6890   81.8990   32.9260 C   0  0  0  0  0  0  0  0  0  0  0  0
   62.9750   81.3550   32.9520 C   0  0  0  0  0  0  0  0  0  0  0  0
   63.9140   81.7400   31.9980 C   0  0  0  0  0  0  0  0  0  0  0  0
   63.5710   82.6720   31.0210 C   0  0  0  0  0  0  0  0  0  0  0  0
   62.2860   83.2170   30.9940 C   0  0  0  0  0  0  0  0  0  0  0  0
   59.3170   82.4730   29.6990 C   0  0  0  0  0  0  0  0  0  0  0  0
   59.8420   81.0440   29.4450 C   0  0  0  0  0  0  0  0  0  0  0  0
   55.2020   78.7700   28.3620 C   0  0  0  0  0  0  0  0  0  0  0  0
   54.5858   78.4512   25.4287 H   0  0  0  0  0  0  0  0  0  0  0  0
   52.8195   78.4107   25.1043 H   0  0  0  0  0  0  0  0  0  0  0  0
   53.6969   79.9781   25.1043 H   0  0  0  0  0  0  0  0  0  0  0  0
   52.6835   76.5661   27.6996 H   0  0  0  0  0  0  0  0  0  0  0  0
   54.0497   75.1809   29.2578 H   0  0  0  0  0  0  0  0  0  0  0  0
   56.1536   76.0870   30.2369 H   0  0  0  0  0  0  0  0  0  0  0  0
   57.6190   78.0790   30.4880 H   0  0  0  0  0  0  0  0  0  0  0  0
   57.9990   79.5006   31.8082 H   0  0  0  0  0  0  0  0  0  0  0  0
   59.6870   80.1180   31.9619 H   0  0  0  0  0  0  0  0  0  0  0  0
   57.1458   81.7073   31.3650 H   0  0  0  0  0  0  0  0  0  0  0  0
   58.2905   81.8163   32.8073 H   0  0  0  0  0  0  0  0  0  0  0  0
   60.0302   84.4588   31.5577 H   0  0  0  0  0  0  0  0  0  0  0  0
   59.5698   83.3091   32.9466 H   0  0  0  0  0  0  0  0  0  0  0  0
   60.9544   81.5973   33.6871 H   0  0  0  0  0  0  0  0  0  0  0  0
   63.2464   80.6222   33.7262 H   0  0  0  0  0  0  0  0  0  0  0  0
   64.9257   81.3085   32.0160 H   0  0  0  0  0  0  0  0  0  0  0  0
   64.3137   82.9789   30.2698 H   0  0  0  0  0  0  0  0  0  0  0  0
   62.0249   83.9592   30.2252 H   0  0  0  0  0  0  0  0  0  0  0  0
   58.4358   82.6295   29.0594 H   0  0  0  0  0  0  0  0  0  0  0  0
   60.1544   83.1487   29.4707 H   0  0  0  0  0  0  0  0  0  0  0  0
   59.9318   80.8809   28.3609 H   0  0  0  0  0  0  0  0  0  0  0  0
   60.8224   80.9385   29.9325 H   0  0  0  0  0  0  0  0  0  0  0  0
   55.5310   79.7865   28.1004 H   0  0  0  0  0  0  0  0  0  0  0  0
  1  2  1  0
  2  3  1  0
  3  4  1  0
  4  5  2  0
  5  6  1  0
  6  7  2  0
  7  8  1  0
  8  9  1  0
  9 10  2  0
  9 11  1  0
 11 12  1  0
 12 13  1  0
 13 14  1  0
 14 15  1  0
 15 16  1  0
 16 17  2  0
 17 18  1  0
 18 19  2  0
 19 20  1  0
 20 21  2  0
 14 22  1  0
 22 23  1  0
  7 24  1  0
 24  3  2  0
 23 11  1  0
 21 16  1  0
  1 25  1  0
  1 26  1  0
  1 27  1  0
  4 28  1  0
  5 29  1  0
  6 30  1  0
  8 31  1  0
 12 32  1  0
 12 33  1  0
 13 34  1  0
 13 35  1  0
 15 36  1  0
 15 37  1  0
 17 38  1  0
 18 39  1  0
 19 40  1  0
 20 41  1  0
 21 42  1  0
 22 43  1  0
 22 44  1  0
 23 45  1  0
 23 46  1  0
 24 47  1  0
M  END
>  <meeko>  (1) 
{"is_sidechain": false}

>  <smiles>  (1) 
COc1cccc(NC(=O)N2CCN(Cc3ccccc3)CC2)c1

>  <vina_score>  (1) 
-7.821

>  <job_id>  (1) 
85a07c65275f1b38

$$$$
