
     RDKit          3D

 46 48  0  0  0  0  0  0  0  0999 V2000
   59.4690   83.8090   31.2120 O   0  0  0  0  0  0  0  0  0  0  0  0
   60.1230   82.8070   31.5060 C   0  0  0  0  0  0  0  0  0  0  0  0
   60.4700   81.7320   30.4770 C   0  0  0  0  0  0  0  0  0  0  0  0
   59.3100   80.8490   30.0820 C   0  0  0  0  0  0  0  0  0  0  0  0
   58.5140   80.2380   31.0580 C   0  0  0  0  0  0  0  0  0  0  0  0
   57.4360   79.4280   30.6910 C   0  0  0  0  0  0  0  0  0  0  0  0
   57.1200   79.2070   29.3400 C   0  0  0  0  0  0  0  0  0  0  0  0
   55.9830   78.3560   28.9560 C   0  0  0  0  0  0  0  0  0  0  0  0
   55.8080   77.0840   29.5210 C   0  0  0  0  0  0  0  0  0  0  0  0
   54.7260   76.2780   29.1630 C   0  0  0  0  0  0  0  0  0  0  0  0
   53.7970   76.7300   28.2270 C   0  0  0  0  0  0  0  0  0  0  0  0
   53.9500   77.9890   27.6350 C   0  0  0  0  0  0  0  0  0  0  0  0
   52.9350   78.4980   26.6480 C   0  0  0  0  0  0  0  0  0  0  0  0
   52.9350   77.6970   25.4730 O   0  0  0  0  0  0  0  0  0  0  0  0
   55.0360   78.7950   28.0140 C   0  0  0  0  0  0  0  0  0  0  0  0
   57.9190   79.8300   28.3690 C   0  0  0  0  0  0  0  0  0  0  0  0
   58.9970   80.6450   28.7320 C   0  0  0  0  0  0  0  0  0  0  0  0
   60.5710   82.5880   32.8090 N   0  0  0  0  0  0  0  0  0  0  0  0
   61.2290   81.3620   33.2620 C   0  0  0  0  0  0  0  0  0  0  0  0
   61.0500   81.1300   34.7570 C   0  0  0  0  0  0  0  0  0  0  0  0
   61.5600   82.3060   35.5880 C   0  0  0  0  0  0  0  0  0  0  0  0
   61.4330   83.6480   34.8680 C   0  0  0  0  0  0  0  0  0  0  0  0
   60.3380   83.6320   33.8090 C   0  0  0  0  0  0  0  0  0  0  0  0
   60.8465   82.2309   29.5718 H   0  0  0  0  0  0  0  0  0  0  0  0
   61.2176   81.0765   30.9476 H   0  0  0  0  0  0  0  0  0  0  0  0
   58.7390   80.3968   32.1230 H   0  0  0  0  0  0  0  0  0  0  0  0
   56.8242   78.9552   31.4735 H   0  0  0  0  0  0  0  0  0  0  0  0
   56.5359   76.7154   30.2588 H   0  0  0  0  0  0  0  0  0  0  0  0
   54.6062   75.2847   29.6201 H   0  0  0  0  0  0  0  0  0  0  0  0
   52.9413   76.0954   27.9529 H   0  0  0  0  0  0  0  0  0  0  0  0
   51.9361   78.4660   27.1075 H   0  0  0  0  0  0  0  0  0  0  0  0
   53.1942   79.5311   26.3733 H   0  0  0  0  0  0  0  0  0  0  0  0
   52.4560   78.1860   24.7810 H   0  0  0  0  0  0  0  0  0  0  0  0
   55.1482   79.7923   27.5636 H   0  0  0  0  0  0  0  0  0  0  0  0
   57.6939   79.6749   27.3035 H   0  0  0  0  0  0  0  0  0  0  0  0
   59.6029   81.1289   27.9517 H   0  0  0  0  0  0  0  0  0  0  0  0
   60.8000   80.5080   32.7174 H   0  0  0  0  0  0  0  0  0  0  0  0
   62.3061   81.4642   33.0633 H   0  0  0  0  0  0  0  0  0  0  0  0
   59.9801   80.9849   34.9675 H   0  0  0  0  0  0  0  0  0  0  0  0
   61.6362   80.2413   35.0336 H   0  0  0  0  0  0  0  0  0  0  0  0
   60.9797   82.3530   36.5213 H   0  0  0  0  0  0  0  0  0  0  0  0
   62.6301   82.1348   35.7768 H   0  0  0  0  0  0  0  0  0  0  0  0
   61.1980   84.4265   35.6087 H   0  0  0  0  0  0  0  0  0  0  0  0
   62.3885   83.8515   34.3625 H   0  0  0  0  0  0  0  0  0  0  0  0
   59.3704   83.4478   34.2987 H   0  0  0  0  0  0  0  0  0  0  0  0
   60.3400   84.6056   33.2971 H   0  0  0  0  0  0  0  0  0  0  0  0
  1  2  2  0
  2  3  1  0
  3  4  1  0
  4  5  1  0
  5  6  2  0
  6  7  1  0
  7  8  1  0
  8  9  1  0
  9 10  2  0
 10 11  1  0
 11 12  2  0
 12 13  1  0
 13 14  1  0
 12 15  1  0
  7 16  2  0
 16 17  1  0
  2 18  1  0
 18 19  1  0
 19 20  1  0
 20 21  1  0
 21 22  1  0
 22 23  1  0
 17  4  2  0
 23 18  1  0
 15  8  2  0
  3 24  1  0
  3 25  1  0
  5 26  1  0
  6 27  1  0
  9 28  1  0
 10 29  1  0
 11 30  1  0
 13 31  1  0
 13 32  1  0
 14 33  1  0
 15 34  1  0
 16 35  1  0
 17 36  1  0
 19 37  1  0
 19 38  1  0
 20 39  1  0
 20 40  1  0
 21 41  1  0
 21 42  1  0
 22 43  1  0
 22 44  1  0
 23 45  1  0
 23 46  1  0
M  END
>  <meeko>  (1) 
{"is_sidechain": false}

>  <smiles>  (1) 
O=C(Cc1ccc(-c2cccc(CO)c2)cc1)N1CCCCC1

>  <vina_score>  (1) 
-7.850

>  <job_id>  (1) 
85d0932153df50c4

$$$$
