
     RDKit          3D

 42 44  0  0  0  0  0  0  0  0999 V2000
   55.0390   82.2280   26.5700 C   0  0  0  0  0  0  0  0  0  0  0  0
   53.7790   81.4440   26.8950 C   0  0  0  0  0  0  0  0  0  0  0  0
   53.6030   80.2810   26.0400 N   0  0  0  0  0  0  0  0  0  0  0  0
   53.9850   78.9740   26.3050 C   0  0  0  0  0  0  0  0  0  0  0  0
   54.6630   78.4660   27.5000 C   0  0  0  0  0  0  0  0  0  0  0  0
   55.9530   78.8460   27.6420 N   0  0  0  0  0  0  0  0  0  0  0  0
   56.6190   78.4010   28.7160 C   0  0  0  0  0  0  0  0  0  0  0  0
   57.9290   78.8280   28.8190 N   0  0  0  0  0  0  0  0  0  0  0  0
   58.1760   80.0890   29.5100 C   0  0  0  0  0  0  0  0  0  0  0  0
   58.5600   79.8570   30.9750 C   0  0  0  0  0  0  0  0  0  0  0  0
   58.9800   81.1690   31.6200 C   0  0  0  0  0  0  0  0  0  0  0  0
   60.0530   81.7660   30.8930 O   0  0  0  0  0  0  0  0  0  0  0  0
   59.6860   82.0850   29.5520 C   0  0  0  0  0  0  0  0  0  0  0  0
   59.3090   80.8260   28.7880 C   0  0  0  0  0  0  0  0  0  0  0  0
   56.0880   77.5970   29.6470 N   0  0  0  0  0  0  0  0  0  0  0  0
   54.8000   77.2340   29.4740 C   0  0  0  0  0  0  0  0  0  0  0  0
   54.0390   77.6400   28.4110 C   0  0  0  0  0  0  0  0  0  0  0  0
   52.7630   77.2480   28.2970 F   0  0  0  0  0  0  0  0  0  0  0  0
   53.5490   78.2790   25.1890 C   0  0  0  0  0  0  0  0  0  0  0  0
   52.9350   79.0950   24.2830 N   0  0  0  0  0  0  0  0  0  0  0  0
   52.9660   80.2980   24.8120 C   0  0  0  0  0  0  0  0  0  0  0  0
   52.3900   81.5140   24.1830 C   0  0  0  0  0  0  0  0  0  0  0  0
   55.5315   82.5344   27.5046 H   0  0  0  0  0  0  0  0  0  0  0  0
   55.7234   81.5960   25.9850 H   0  0  0  0  0  0  0  0  0  0  0  0
   54.7744   83.1212   25.9850 H   0  0  0  0  0  0  0  0  0  0  0  0
   53.8349   81.1065   27.9404 H   0  0  0  0  0  0  0  0  0  0  0  0
   52.9209   82.1115   26.7272 H   0  0  0  0  0  0  0  0  0  0  0  0
   58.4840   78.0380   29.1280 H   0  0  0  0  0  0  0  0  0  0  0  0
   57.2544   80.6895   29.4972 H   0  0  0  0  0  0  0  0  0  0  0  0
   57.6956   79.4457   31.5168 H   0  0  0  0  0  0  0  0  0  0  0  0
   59.4009   79.1492   31.0188 H   0  0  0  0  0  0  0  0  0  0  0  0
   58.1225   81.8579   31.6294 H   0  0  0  0  0  0  0  0  0  0  0  0
   59.3173   80.9668   32.6473 H   0  0  0  0  0  0  0  0  0  0  0  0
   58.8262   82.7710   29.5657 H   0  0  0  0  0  0  0  0  0  0  0  0
   60.5432   82.5603   29.0526 H   0  0  0  0  0  0  0  0  0  0  0  0
   58.9770   81.1007   27.7759 H   0  0  0  0  0  0  0  0  0  0  0  0
   60.1866   80.1655   28.7286 H   0  0  0  0  0  0  0  0  0  0  0  0
   54.3375   76.5779   30.2261 H   0  0  0  0  0  0  0  0  0  0  0  0
   53.6820   77.1961   25.0491 H   0  0  0  0  0  0  0  0  0  0  0  0
   52.0598   82.2111   24.9672 H   0  0  0  0  0  0  0  0  0  0  0  0
   53.1535   82.0002   23.5580 H   0  0  0  0  0  0  0  0  0  0  0  0
   51.5301   81.2312   23.5580 H   0  0  0  0  0  0  0  0  0  0  0  0
  1  2  1  0
  2  3  1  0
  3  4  1  0
  4  5  1  0
  5  6  2  0
  6  7  1  0
  7  8  1  0
  8  9  1  0
  9 10  1  0
 10 11  1  0
 11 12  1  0
 12 13  1  0
 13 14  1  0
  7 15  2  0
 15 16  1  0
 16 17  2  0
 17 18  1  0
  4 19  2  0
 19 20  1  0
 20 21  2  0
 21 22  1  0
 21  3  1  0
 17  5  1  0
 14  9  1  0
  1 23  1  0
  1 24  1  0
  1 25  1  0
  2 26  1  0
  2 27  1  0
  8 28  1  0
  9 29  1  0
 10 30  1  0
 10 31  1  0
 11 32  1  0
 11 33  1  0
 13 34  1  0
 13 35  1  0
 14 36  1  0
 14 37  1  0
 16 38  1  0
 19 39  1  0
 22 40  1  0
 22 41  1  0
 22 42  1  0
M  END
>  <meeko>  (1) 
{"is_sidechain": false}

>  <smiles>  (1) 
CCn1c(-c2nc(NC3CCOCC3)ncc2F)cnc1C

>  <vina_score>  (1) 
-7.675

>  <job_id>  (1) 
85e938e2d45fd677

$$$$
