
     RDKit          3D

 59 63  0  0  0  0  0  0  0  0999 V2000
   54.1450   78.7000   27.3740 C   0  0  0  0  0  0  0  0  0  0  0  0
   54.2690   77.8010   28.5130 N   0  0  0  0  0  0  0  0  0  0  0  0
   53.1290   76.9380   28.7700 C   0  0  0  0  0  0  0  0  0  0  0  0
   55.4630   77.5200   29.1720 C   0  0  0  0  0  0  0  0  0  0  0  0
   55.6380   76.5240   29.8720 O   0  0  0  0  0  0  0  0  0  0  0  0
   56.5960   78.4660   29.0530 C   0  0  0  0  0  0  0  0  0  0  0  0
   57.1420   78.7750   27.8040 C   0  0  0  0  0  0  0  0  0  0  0  0
   58.1850   79.6910   27.7210 C   0  0  0  0  0  0  0  0  0  0  0  0
   58.6650   80.3100   28.8810 C   0  0  0  0  0  0  0  0  0  0  0  0
   58.1070   80.0420   30.1480 C   0  0  0  0  0  0  0  0  0  0  0  0
   58.6160   80.7240   31.3510 C   0  0  0  0  0  0  0  0  0  0  0  0
   57.8890   80.8440   32.5340 C   0  0  0  0  0  0  0  0  0  0  0  0
   58.3560   81.4680   33.6450 N   0  0  0  0  0  0  0  0  0  0  0  0
   59.5970   81.9880   33.5660 C   0  0  0  0  0  0  0  0  0  0  0  0
   60.0750   82.6590   34.7080 N   0  0  0  0  0  0  0  0  0  0  0  0
   60.3370   81.8800   32.3740 C   0  0  0  0  0  0  0  0  0  0  0  0
   61.6920   82.4140   32.2310 C   0  0  0  0  0  0  0  0  0  0  0  0
   62.1770   83.5500   32.7010 N   0  0  0  0  0  0  0  0  0  0  0  0
   63.5070   83.6010   32.3100 C   0  0  0  0  0  0  0  0  0  0  0  0
   64.4920   84.6070   32.5330 C   0  0  0  0  0  0  0  0  0  0  0  0
   64.3270   85.8210   33.2510 N   0  0  0  0  0  0  0  0  0  0  0  0
   65.5930   86.2210   33.9190 C   0  0  0  0  0  0  0  0  0  0  0  0
   65.5760   87.7170   34.3050 C   0  0  0  0  0  0  0  0  0  0  0  0
   65.4110   88.6430   33.1660 N   0  0  0  0  0  0  0  0  0  0  0  0
   64.6270   88.0150   32.0810 C   0  0  0  0  0  0  0  0  0  0  0  0
   63.6380   86.9270   32.5520 C   0  0  0  0  0  0  0  0  0  0  0  0
   65.7650   84.3500   31.9660 C   0  0  0  0  0  0  0  0  0  0  0  0
   66.0550   83.1940   31.2330 C   0  0  0  0  0  0  0  0  0  0  0  0
   65.0820   82.2200   31.0200 C   0  0  0  0  0  0  0  0  0  0  0  0
   63.8260   82.4630   31.5730 C   0  0  0  0  0  0  0  0  0  0  0  0
   62.6690   81.7320   31.5480 N   0  0  0  0  0  0  0  0  0  0  0  0
   59.8630   81.2560   31.2560 N   0  0  0  0  0  0  0  0  0  0  0  0
   57.0600   79.1070   30.2100 C   0  0  0  0  0  0  0  0  0  0  0  0
   54.0030   79.7298   27.7335 H   0  0  0  0  0  0  0  0  0  0  0  0
   55.0589   78.6473   26.7641 H   0  0  0  0  0  0  0  0  0  0  0  0
   53.2795   78.4019   26.7641 H   0  0  0  0  0  0  0  0  0  0  0  0
   52.9876   76.8309   29.8556 H   0  0  0  0  0  0  0  0  0  0  0  0
   52.2260   77.3809   28.3245 H   0  0  0  0  0  0  0  0  0  0  0  0
   53.3102   75.9487   28.3245 H   0  0  0  0  0  0  0  0  0  0  0  0
   56.7498   78.2974   26.8940 H   0  0  0  0  0  0  0  0  0  0  0  0
   58.6324   79.9289   26.7447 H   0  0  0  0  0  0  0  0  0  0  0  0
   59.4985   81.0235   28.8023 H   0  0  0  0  0  0  0  0  0  0  0  0
   56.8796   80.4083   32.5692 H   0  0  0  0  0  0  0  0  0  0  0  0
   61.0900   82.7220   34.6260 H   0  0  0  0  0  0  0  0  0  0  0  0
   59.7650   83.6290   34.6460 H   0  0  0  0  0  0  0  0  0  0  0  0
   65.7239   85.6176   34.8293 H   0  0  0  0  0  0  0  0  0  0  0  0
   66.4236   86.0529   33.2177 H   0  0  0  0  0  0  0  0  0  0  0  0
   64.7433   87.8816   35.0047 H   0  0  0  0  0  0  0  0  0  0  0  0
   66.5594   87.9368   34.7462 H   0  0  0  0  0  0  0  0  0  0  0  0
   64.9240   89.4750   33.4970 H   0  0  0  0  0  0  0  0  0  0  0  0
   64.0534   88.8031   31.5713 H   0  0  0  0  0  0  0  0  0  0  0  0
   65.3512   87.5146   31.4213 H   0  0  0  0  0  0  0  0  0  0  0  0
   62.9090   87.3822   33.2385 H   0  0  0  0  0  0  0  0  0  0  0  0
   63.1401   86.5112   31.6636 H   0  0  0  0  0  0  0  0  0  0  0  0
   66.5625   85.0941   32.1088 H   0  0  0  0  0  0  0  0  0  0  0  0
   67.0644   83.0524   30.8195 H   0  0  0  0  0  0  0  0  0  0  0  0
   65.2941   81.3065   30.4451 H   0  0  0  0  0  0  0  0  0  0  0  0
   62.5240   80.8350   31.1060 H   0  0  0  0  0  0  0  0  0  0  0  0
   56.5977   78.8746   31.1807 H   0  0  0  0  0  0  0  0  0  0  0  0
  1  2  1  0
  2  3  1  0
  2  4  1  0
  4  5  2  0
  4  6  1  0
  6  7  1  0
  7  8  2  0
  8  9  1  0
  9 10  2  0
 10 11  1  0
 11 12  1  0
 12 13  2  0
 13 14  1  0
 14 15  1  0
 14 16  2  0
 16 17  1  0
 17 18  2  0
 18 19  1  0
 19 20  2  0
 20 21  1  0
 21 22  1  0
 22 23  1  0
 23 24  1  0
 24 25  1  0
 25 26  1  0
 20 27  1  0
 27 28  2  0
 28 29  1  0
 29 30  2  0
 30 31  1  0
 16 32  1  0
 10 33  1  0
 33  6  2  0
 32 11  2  0
 31 17  1  0
 30 19  1  0
 26 21  1  0
  1 34  1  0
  1 35  1  0
  1 36  1  0
  3 37  1  0
  3 38  1  0
  3 39  1  0
  7 40  1  0
  8 41  1  0
  9 42  1  0
 12 43  1  0
 15 44  1  0
 15 45  1  0
 22 46  1  0
 22 47  1  0
 23 48  1  0
 23 49  1  0
 24 50  1  0
 25 51  1  0
 25 52  1  0
 26 53  1  0
 26 54  1  0
 27 55  1  0
 28 56  1  0
 29 57  1  0
 31 58  1  0
 33 59  1  0
M  END
>  <meeko>  (1) 
{"is_sidechain": false}

>  <smiles>  (1) 
CN(C)C(=O)c1cccc(-c2cnc(N)c(-c3nc4c(N5CCNCC5)cccc4[nH]3)n2)c1

>  <vina_score>  (1) 
-7.735

>  <job_id>  (1) 
8604c5163b46d22d

$$$$
