
     RDKit          3D

 45 49  0  0  0  0  0  0  0  0999 V2000
   54.8300   76.4450   29.1470 C   0  0  0  0  0  0  0  0  0  0  0  0
   55.9050   77.2960   29.4450 C   0  0  0  0  0  0  0  0  0  0  0  0
   55.9920   78.5800   28.8960 C   0  0  0  0  0  0  0  0  0  0  0  0
   57.0460   79.4720   29.1620 N   0  0  0  0  0  0  0  0  0  0  0  0
   58.1850   79.4830   28.2360 C   0  0  0  0  0  0  0  0  0  0  0  0
   58.9900   80.7710   28.4370 C   0  0  0  0  0  0  0  0  0  0  0  0
   59.3400   80.9780   29.8760 C   0  0  0  0  0  0  0  0  0  0  0  0
   60.3700   81.7950   30.2770 C   0  0  0  0  0  0  0  0  0  0  0  0
   60.6880   82.0160   31.5650 N   0  0  0  0  0  0  0  0  0  0  0  0
   59.9410   81.4100   32.4950 C   0  0  0  0  0  0  0  0  0  0  0  0
   60.1780   81.5820   33.8620 N   0  0  0  0  0  0  0  0  0  0  0  0
   61.3260   81.0730   34.6060 C   0  0  0  0  0  0  0  0  0  0  0  0
   61.2850   79.8560   35.4840 C   0  0  0  0  0  0  0  0  0  0  0  0
   62.1190   79.8570   34.2310 C   0  0  0  0  0  0  0  0  0  0  0  0
   58.9060   80.6060   32.2030 N   0  0  0  0  0  0  0  0  0  0  0  0
   58.6040   80.4070   30.8970 C   0  0  0  0  0  0  0  0  0  0  0  0
   57.4330   79.4830   30.5960 C   0  0  0  0  0  0  0  0  0  0  0  0
   54.9620   78.9680   28.0250 C   0  0  0  0  0  0  0  0  0  0  0  0
   53.8910   78.1160   27.7270 C   0  0  0  0  0  0  0  0  0  0  0  0
   53.8030   76.8320   28.2770 C   0  0  0  0  0  0  0  0  0  0  0  0
   52.6410   75.9200   27.9710 C   0  0  0  0  0  0  0  0  0  0  0  0
   52.1840   75.7300   26.5430 C   0  0  0  0  0  0  0  0  0  0  0  0
   52.8750   74.6090   27.2570 C   0  0  0  0  0  0  0  0  0  0  0  0
   54.7929   75.4474   29.6090 H   0  0  0  0  0  0  0  0  0  0  0  0
   56.6961   76.9463   30.1246 H   0  0  0  0  0  0  0  0  0  0  0  0
   58.8283   78.6131   28.4347 H   0  0  0  0  0  0  0  0  0  0  0  0
   57.8177   79.4365   27.2002 H   0  0  0  0  0  0  0  0  0  0  0  0
   59.9174   80.7087   27.8487 H   0  0  0  0  0  0  0  0  0  0  0  0
   58.3732   81.6194   28.1057 H   0  0  0  0  0  0  0  0  0  0  0  0
   60.9676   82.2961   29.5012 H   0  0  0  0  0  0  0  0  0  0  0  0
   59.2640   81.5410   34.3010 H   0  0  0  0  0  0  0  0  0  0  0  0
   61.5641   82.1369   34.7522 H   0  0  0  0  0  0  0  0  0  0  0  0
   61.7727   79.8718   36.4699 H   0  0  0  0  0  0  0  0  0  0  0  0
   60.4886   79.2143   35.8890 H   0  0  0  0  0  0  0  0  0  0  0  0
   63.2167   79.8730   34.3008 H   0  0  0  0  0  0  0  0  0  0  0  0
   62.1852   79.2156   33.3398 H   0  0  0  0  0  0  0  0  0  0  0  0
   57.7108   78.4602   30.8904 H   0  0  0  0  0  0  0  0  0  0  0  0
   56.5685   79.8577   31.1636 H   0  0  0  0  0  0  0  0  0  0  0  0
   54.9968   79.9665   27.5648 H   0  0  0  0  0  0  0  0  0  0  0  0
   53.1010   78.4639   27.0452 H   0  0  0  0  0  0  0  0  0  0  0  0
   52.1583   76.2213   28.9124 H   0  0  0  0  0  0  0  0  0  0  0  0
   51.1104   75.6569   26.3150 H   0  0  0  0  0  0  0  0  0  0  0  0
   52.3494   76.2667   25.5972 H   0  0  0  0  0  0  0  0  0  0  0  0
   52.3080   73.7139   27.5525 H   0  0  0  0  0  0  0  0  0  0  0  0
   53.7565   73.9841   27.0509 H   0  0  0  0  0  0  0  0  0  0  0  0
  1  2  2  0
  2  3  1  0
  3  4  1  0
  4  5  1  0
  5  6  1  0
  6  7  1  0
  7  8  2  0
  8  9  1  0
  9 10  2  0
 10 11  1  0
 11 12  1  0
 12 13  1  0
 13 14  1  0
 10 15  1  0
 15 16  2  0
 16 17  1  0
  3 18  2  0
 18 19  1  0
 19 20  2  0
 20 21  1  0
 21 22  1  0
 22 23  1  0
 20  1  1  0
 23 21  1  0
 17  4  1  0
 16  7  1  0
 14 12  1  0
  1 24  1  0
  2 25  1  0
  5 26  1  0
  5 27  1  0
  6 28  1  0
  6 29  1  0
  8 30  1  0
 11 31  1  0
 12 32  1  0
 13 33  1  0
 13 34  1  0
 14 35  1  0
 14 36  1  0
 17 37  1  0
 17 38  1  0
 18 39  1  0
 19 40  1  0
 21 41  1  0
 22 42  1  0
 22 43  1  0
 23 44  1  0
 23 45  1  0
M  END
>  <meeko>  (1) 
{"is_sidechain": false}

>  <smiles>  (1) 
c1cc(N2CCc3cnc(NC4CC4)nc3C2)ccc1C1CC1

>  <vina_score>  (1) 
-8.068

>  <job_id>  (1) 
865ce3df016fb67d

$$$$
