
     RDKit          3D

 34 35  0  0  0  0  0  0  0  0999 V2000
   52.9650   77.2330   26.2490 O   0  0  0  0  0  0  0  0  0  0  0  0
   53.1560   78.2160   26.9600 C   0  0  0  0  0  0  0  0  0  0  0  0
   52.6560   79.5860   26.5200 C   0  0  0  0  0  0  0  0  0  0  0  0
   53.7200   80.6570   26.4570 C   0  0  0  0  0  0  0  0  0  0  0  0
   54.9640   80.3920   25.8670 C   0  0  0  0  0  0  0  0  0  0  0  0
   55.9350   81.3920   25.7900 C   0  0  0  0  0  0  0  0  0  0  0  0
   55.6730   82.6600   26.3050 C   0  0  0  0  0  0  0  0  0  0  0  0
   54.4430   82.9310   26.8990 C   0  0  0  0  0  0  0  0  0  0  0  0
   53.4690   81.9350   26.9770 C   0  0  0  0  0  0  0  0  0  0  0  0
   53.7110   78.1920   28.2270 N   0  0  0  0  0  0  0  0  0  0  0  0
   54.3960   77.1100   28.7570 C   0  0  0  0  0  0  0  0  0  0  0  0
   54.2740   75.9420   28.4010 O   0  0  0  0  0  0  0  0  0  0  0  0
   55.2530   77.4650   29.9640 C   0  0  0  0  0  0  0  0  0  0  0  0
   56.4380   78.3430   29.6320 C   0  0  0  0  0  0  0  0  0  0  0  0
   57.0590   79.1000   30.6400 C   0  0  0  0  0  0  0  0  0  0  0  0
   58.1570   79.9070   30.3380 C   0  0  0  0  0  0  0  0  0  0  0  0
   58.6290   79.9620   29.0330 C   0  0  0  0  0  0  0  0  0  0  0  0
   59.6870   80.7310   28.7460 F   0  0  0  0  0  0  0  0  0  0  0  0
   58.0220   79.2270   28.0210 C   0  0  0  0  0  0  0  0  0  0  0  0
   56.9240   78.4190   28.3190 C   0  0  0  0  0  0  0  0  0  0  0  0
   52.2134   79.4835   25.5182 H   0  0  0  0  0  0  0  0  0  0  0  0
   51.9326   79.9117   27.2819 H   0  0  0  0  0  0  0  0  0  0  0  0
   55.1759   79.3911   25.4628 H   0  0  0  0  0  0  0  0  0  0  0  0
   56.9076   81.1789   25.3225 H   0  0  0  0  0  0  0  0  0  0  0  0
   56.4384   83.4475   26.2423 H   0  0  0  0  0  0  0  0  0  0  0  0
   54.2390   83.9318   27.3073 H   0  0  0  0  0  0  0  0  0  0  0  0
   52.4995   82.1533   27.4487 H   0  0  0  0  0  0  0  0  0  0  0  0
   53.9420   79.0940   28.6230 H   0  0  0  0  0  0  0  0  0  0  0  0
   54.6226   77.9942   30.6937 H   0  0  0  0  0  0  0  0  0  0  0  0
   55.6542   76.5211   30.3616 H   0  0  0  0  0  0  0  0  0  0  0  0
   56.6783   79.0564   31.6711 H   0  0  0  0  0  0  0  0  0  0  0  0
   58.6454   80.4957   31.1285 H   0  0  0  0  0  0  0  0  0  0  0  0
   58.4050   79.2821   26.9913 H   0  0  0  0  0  0  0  0  0  0  0  0
   56.4378   77.8393   27.5205 H   0  0  0  0  0  0  0  0  0  0  0  0
  1  2  2  0
  2  3  1  0
  3  4  1  0
  4  5  2  0
  5  6  1  0
  6  7  2  0
  7  8  1  0
  8  9  2  0
  2 10  1  0
 10 11  1  0
 11 12  2  0
 11 13  1  0
 13 14  1  0
 14 15  1  0
 15 16  2  0
 16 17  1  0
 17 18  1  0
 17 19  2  0
 19 20  1  0
  9  4  1  0
 20 14  2  0
  3 21  1  0
  3 22  1  0
  5 23  1  0
  6 24  1  0
  7 25  1  0
  8 26  1  0
  9 27  1  0
 10 28  1  0
 13 29  1  0
 13 30  1  0
 15 31  1  0
 16 32  1  0
 19 33  1  0
 20 34  1  0
M  END
>  <meeko>  (1) 
{"is_sidechain": false}

>  <smiles>  (1) 
O=C(Cc1ccccc1)NC(=O)Cc1ccc(F)cc1

>  <vina_score>  (1) 
-7.653

>  <job_id>  (1) 
867d5a96959c5c7b

$$$$
