
     RDKit          3D

 43 45  0  0  0  0  0  0  0  0999 V2000
   52.5430   76.0040   26.9190 C   0  0  0  0  0  0  0  0  0  0  0  0
   53.3080   75.8240   28.1050 O   0  0  0  0  0  0  0  0  0  0  0  0
   54.2470   76.7770   28.3910 C   0  0  0  0  0  0  0  0  0  0  0  0
   55.0530   76.4850   29.4900 C   0  0  0  0  0  0  0  0  0  0  0  0
   56.0560   77.3720   29.8950 C   0  0  0  0  0  0  0  0  0  0  0  0
   56.2800   78.5770   29.2090 C   0  0  0  0  0  0  0  0  0  0  0  0
   57.3460   79.4900   29.6630 C   0  0  0  0  0  0  0  0  0  0  0  0
   58.2890   80.0080   28.7680 C   0  0  0  0  0  0  0  0  0  0  0  0
   59.3100   80.8580   29.2050 C   0  0  0  0  0  0  0  0  0  0  0  0
   59.4260   81.2170   30.5570 C   0  0  0  0  0  0  0  0  0  0  0  0
   60.4350   82.0830   31.0250 N   0  0  0  0  0  0  0  0  0  0  0  0
   61.7930   81.7330   30.5540 C   0  0  0  0  0  0  0  0  0  0  0  0
   62.8110   82.6790   31.2140 C   0  0  0  0  0  0  0  0  0  0  0  0
   62.5140   84.0560   30.9180 O   0  0  0  0  0  0  0  0  0  0  0  0
   61.1980   84.3920   31.3950 C   0  0  0  0  0  0  0  0  0  0  0  0
   60.1200   83.5030   30.7510 C   0  0  0  0  0  0  0  0  0  0  0  0
   58.4820   80.7070   31.4690 C   0  0  0  0  0  0  0  0  0  0  0  0
   58.5510   81.0670   32.9290 C   0  0  0  0  0  0  0  0  0  0  0  0
   57.4590   79.8540   31.0150 C   0  0  0  0  0  0  0  0  0  0  0  0
   55.4560   78.8530   28.1030 C   0  0  0  0  0  0  0  0  0  0  0  0
   55.6310   80.0250   27.4120 O   0  0  0  0  0  0  0  0  0  0  0  0
   54.4500   77.9670   27.6940 C   0  0  0  0  0  0  0  0  0  0  0  0
   51.5043   76.2484   27.1862 H   0  0  0  0  0  0  0  0  0  0  0  0
   52.9723   76.8257   26.3269 H   0  0  0  0  0  0  0  0  0  0  0  0
   52.5609   75.0771   26.3269 H   0  0  0  0  0  0  0  0  0  0  0  0
   54.8988   75.5476   30.0445 H   0  0  0  0  0  0  0  0  0  0  0  0
   56.6799   77.1215   30.7656 H   0  0  0  0  0  0  0  0  0  0  0  0
   58.2261   79.7420   27.7025 H   0  0  0  0  0  0  0  0  0  0  0  0
   60.0344   81.2519   28.4769 H   0  0  0  0  0  0  0  0  0  0  0  0
   62.0227   80.6933   30.8302 H   0  0  0  0  0  0  0  0  0  0  0  0
   61.8450   81.8356   29.4600 H   0  0  0  0  0  0  0  0  0  0  0  0
   62.7820   82.5325   32.3038 H   0  0  0  0  0  0  0  0  0  0  0  0
   63.8098   82.4461   30.8163 H   0  0  0  0  0  0  0  0  0  0  0  0
   61.1680   84.2563   32.4862 H   0  0  0  0  0  0  0  0  0  0  0  0
   60.9896   85.4376   31.1242 H   0  0  0  0  0  0  0  0  0  0  0  0
   59.1362   83.7506   31.1763 H   0  0  0  0  0  0  0  0  0  0  0  0
   60.0990   83.6746   29.6647 H   0  0  0  0  0  0  0  0  0  0  0  0
   58.3785   80.1668   33.5372 H   0  0  0  0  0  0  0  0  0  0  0  0
   59.5446   81.4796   33.1584 H   0  0  0  0  0  0  0  0  0  0  0  0
   57.7804   81.8177   33.1584 H   0  0  0  0  0  0  0  0  0  0  0  0
   56.7285   79.4619   31.7380 H   0  0  0  0  0  0  0  0  0  0  0  0
   54.9660   80.0870   26.7090 H   0  0  0  0  0  0  0  0  0  0  0  0
   53.8217   78.2103   26.8245 H   0  0  0  0  0  0  0  0  0  0  0  0
  1  2  1  0
  2  3  1  0
  3  4  1  0
  4  5  2  0
  5  6  1  0
  6  7  1  0
  7  8  1  0
  8  9  2  0
  9 10  1  0
 10 11  1  0
 11 12  1  0
 12 13  1  0
 13 14  1  0
 14 15  1  0
 15 16  1  0
 10 17  2  0
 17 18  1  0
 17 19  1  0
  6 20  2  0
 20 21  1  0
 20 22  1  0
 22  3  2  0
 19  7  2  0
 16 11  1  0
  1 23  1  0
  1 24  1  0
  1 25  1  0
  4 26  1  0
  5 27  1  0
  8 28  1  0
  9 29  1  0
 12 30  1  0
 12 31  1  0
 13 32  1  0
 13 33  1  0
 15 34  1  0
 15 35  1  0
 16 36  1  0
 16 37  1  0
 18 38  1  0
 18 39  1  0
 18 40  1  0
 19 41  1  0
 21 42  1  0
 22 43  1  0
M  END
>  <meeko>  (1) 
{"is_sidechain": false}

>  <smiles>  (1) 
COc1ccc(-c2ccc(N3CCOCC3)c(C)c2)c(O)c1

>  <vina_score>  (1) 
-6.913

>  <job_id>  (1) 
86fda082bd1f16fc

$$$$
