
     RDKit          3D

 55 58  0  0  0  0  0  0  0  0999 V2000
   52.1330   81.6520   22.3530 C   0  0  0  0  0  0  0  0  0  0  0  0
   51.6270   80.7070   23.3490 N   0  0  0  0  0  0  0  0  0  0  0  0
   52.5350   79.5640   23.5200 C   0  0  0  0  0  0  0  0  0  0  0  0
   53.7060   79.8100   24.4310 C   0  0  0  0  0  0  0  0  0  0  0  0
   53.7820   80.8610   25.2680 C   0  0  0  0  0  0  0  0  0  0  0  0
   54.9630   81.0730   26.1190 C   0  0  0  0  0  0  0  0  0  0  0  0
   55.5570   82.3110   26.2350 C   0  0  0  0  0  0  0  0  0  0  0  0
   56.6420   82.5670   26.9960 N   0  0  0  0  0  0  0  0  0  0  0  0
   57.1660   81.5440   27.6850 C   0  0  0  0  0  0  0  0  0  0  0  0
   58.2840   81.7160   28.5020 N   0  0  0  0  0  0  0  0  0  0  0  0
   58.5630   81.2320   29.7270 C   0  0  0  0  0  0  0  0  0  0  0  0
   58.9060   79.9300   30.1450 C   0  0  0  0  0  0  0  0  0  0  0  0
   59.1080   79.8580   31.4650 N   0  0  0  0  0  0  0  0  0  0  0  0
   58.8910   81.1180   31.8840 N   0  0  0  0  0  0  0  0  0  0  0  0
   59.0210   81.4300   33.2860 C   0  0  0  0  0  0  0  0  0  0  0  0
   58.5600   81.9810   30.8780 C   0  0  0  0  0  0  0  0  0  0  0  0
   56.6720   80.2990   27.6450 N   0  0  0  0  0  0  0  0  0  0  0  0
   55.5900   80.0870   26.8650 C   0  0  0  0  0  0  0  0  0  0  0  0
   55.0680   78.8080   26.7890 O   0  0  0  0  0  0  0  0  0  0  0  0
   54.3940   78.3240   27.9590 C   0  0  0  0  0  0  0  0  0  0  0  0
   52.9600   77.8800   27.6130 C   0  0  0  0  0  0  0  0  0  0  0  0
   52.8920   76.4020   27.2440 C   0  0  0  0  0  0  0  0  0  0  0  0
   53.3560   75.5070   28.3950 C   0  0  0  0  0  0  0  0  0  0  0  0
   54.4220   76.1580   29.2780 C   0  0  0  0  0  0  0  0  0  0  0  0
   55.2530   77.1640   28.4950 C   0  0  0  0  0  0  0  0  0  0  0  0
   52.6420   81.8450   25.3740 C   0  0  0  0  0  0  0  0  0  0  0  0
   51.3740   81.3570   24.6450 C   0  0  0  0  0  0  0  0  0  0  0  0
   52.5930   82.5111   22.8632 H   0  0  0  0  0  0  0  0  0  0  0  0
   52.8850   81.1537   21.7235 H   0  0  0  0  0  0  0  0  0  0  0  0
   51.3014   82.0016   21.7235 H   0  0  0  0  0  0  0  0  0  0  0  0
   51.9537   78.7256   23.9312 H   0  0  0  0  0  0  0  0  0  0  0  0
   52.9584   79.3578   22.5259 H   0  0  0  0  0  0  0  0  0  0  0  0
   54.5420   79.0953   24.4122 H   0  0  0  0  0  0  0  0  0  0  0  0
   55.1177   83.1462   25.6698 H   0  0  0  0  0  0  0  0  0  0  0  0
   58.9360   82.3140   28.0120 H   0  0  0  0  0  0  0  0  0  0  0  0
   58.9971   79.0715   29.4633 H   0  0  0  0  0  0  0  0  0  0  0  0
   58.6663   80.5787   33.8855 H   0  0  0  0  0  0  0  0  0  0  0  0
   60.0770   81.6292   33.5209 H   0  0  0  0  0  0  0  0  0  0  0  0
   58.4189   82.3201   33.5209 H   0  0  0  0  0  0  0  0  0  0  0  0
   58.3371   83.0542   30.9708 H   0  0  0  0  0  0  0  0  0  0  0  0
   54.2865   79.1047   28.7264 H   0  0  0  0  0  0  0  0  0  0  0  0
   52.3131   78.0584   28.4846 H   0  0  0  0  0  0  0  0  0  0  0  0
   52.6250   78.4629   26.7424 H   0  0  0  0  0  0  0  0  0  0  0  0
   51.8527   76.1458   26.9904 H   0  0  0  0  0  0  0  0  0  0  0  0
   53.5613   76.2323   26.3877 H   0  0  0  0  0  0  0  0  0  0  0  0
   52.4848   75.2644   29.0213 H   0  0  0  0  0  0  0  0  0  0  0  0
   53.8084   74.6099   27.9472 H   0  0  0  0  0  0  0  0  0  0  0  0
   53.9276   76.6753   30.1135 H   0  0  0  0  0  0  0  0  0  0  0  0
   55.0928   75.3693   29.6494 H   0  0  0  0  0  0  0  0  0  0  0  0
   56.0313   77.5735   29.1557 H   0  0  0  0  0  0  0  0  0  0  0  0
   55.6977   76.6429   27.6344 H   0  0  0  0  0  0  0  0  0  0  0  0
   52.4026   81.9949   26.4371 H   0  0  0  0  0  0  0  0  0  0  0  0
   52.9631   82.7826   24.8968 H   0  0  0  0  0  0  0  0  0  0  0  0
   50.8593   80.6355   25.2966 H   0  0  0  0  0  0  0  0  0  0  0  0
   50.7707   82.2522   24.4335 H   0  0  0  0  0  0  0  0  0  0  0  0
  1  2  1  0
  2  3  1  0
  3  4  1  0
  4  5  2  0
  5  6  1  0
  6  7  2  0
  7  8  1  0
  8  9  2  0
  9 10  1  0
 10 11  1  0
 11 12  1  0
 12 13  2  0
 13 14  1  0
 14 15  1  0
 14 16  1  0
  9 17  1  0
 17 18  2  0
 18 19  1  0
 19 20  1  0
 20 21  1  0
 21 22  1  0
 22 23  1  0
 23 24  1  0
 24 25  1  0
  5 26  1  0
 26 27  1  0
 27  2  1  0
 18  6  1  0
 25 20  1  0
 16 11  2  0
  1 28  1  0
  1 29  1  0
  1 30  1  0
  3 31  1  0
  3 32  1  0
  4 33  1  0
  7 34  1  0
 10 35  1  0
 12 36  1  0
 15 37  1  0
 15 38  1  0
 15 39  1  0
 16 40  1  0
 20 41  1  0
 21 42  1  0
 21 43  1  0
 22 44  1  0
 22 45  1  0
 23 46  1  0
 23 47  1  0
 24 48  1  0
 24 49  1  0
 25 50  1  0
 25 51  1  0
 26 52  1  0
 26 53  1  0
 27 54  1  0
 27 55  1  0
M  END
>  <meeko>  (1) 
{"is_sidechain": false}

>  <smiles>  (1) 
CN1CC=C(c2cnc(Nc3cnn(C)c3)nc2OC2CCCCC2)CC1

>  <vina_score>  (1) 
-7.383

>  <job_id>  (1) 
86ff1f5ef178f9be

$$$$
