
     RDKit          3D

 42 43  0  0  0  0  0  0  0  0999 V2000
   60.6690   82.6330   34.3590 C   0  0  0  0  0  0  0  0  0  0  0  0
   59.6200   81.7800   33.9190 O   0  0  0  0  0  0  0  0  0  0  0  0
   59.5120   81.5810   32.5710 C   0  0  0  0  0  0  0  0  0  0  0  0
   60.2280   82.2530   31.5800 C   0  0  0  0  0  0  0  0  0  0  0  0
   60.0170   81.9500   30.2320 C   0  0  0  0  0  0  0  0  0  0  0  0
   59.0900   80.9680   29.8530 C   0  0  0  0  0  0  0  0  0  0  0  0
   58.8540   80.6680   28.3950 C   0  0  0  0  0  0  0  0  0  0  0  0
   57.7800   79.7120   28.2350 N   0  0  0  0  0  0  0  0  0  0  0  0
   56.6000   80.0560   27.6110 C   0  0  0  0  0  0  0  0  0  0  0  0
   56.4070   81.1410   27.0730 O   0  0  0  0  0  0  0  0  0  0  0  0
   55.5140   79.0380   27.6520 C   0  0  0  0  0  0  0  0  0  0  0  0
   54.5030   78.9920   26.6860 C   0  0  0  0  0  0  0  0  0  0  0  0
   53.5010   78.0180   26.7670 C   0  0  0  0  0  0  0  0  0  0  0  0
   53.4890   77.0820   27.8120 C   0  0  0  0  0  0  0  0  0  0  0  0
   52.3890   76.0360   27.8750 C   0  0  0  0  0  0  0  0  0  0  0  0
   52.1810   75.3570   26.5190 C   0  0  0  0  0  0  0  0  0  0  0  0
   51.0770   76.6300   28.3950 C   0  0  0  0  0  0  0  0  0  0  0  0
   54.4990   77.1490   28.7830 C   0  0  0  0  0  0  0  0  0  0  0  0
   55.5000   78.1210   28.7060 C   0  0  0  0  0  0  0  0  0  0  0  0
   58.3680   80.3030   30.8500 C   0  0  0  0  0  0  0  0  0  0  0  0
   58.5820   80.6070   32.1960 C   0  0  0  0  0  0  0  0  0  0  0  0
   60.6905   82.6505   35.4587 H   0  0  0  0  0  0  0  0  0  0  0  0
   61.6307   82.2574   33.9794 H   0  0  0  0  0  0  0  0  0  0  0  0
   60.4974   83.6511   33.9794 H   0  0  0  0  0  0  0  0  0  0  0  0
   60.9610   83.0238   31.8604 H   0  0  0  0  0  0  0  0  0  0  0  0
   60.5849   82.4883   29.4588 H   0  0  0  0  0  0  0  0  0  0  0  0
   58.5885   81.5994   27.8734 H   0  0  0  0  0  0  0  0  0  0  0  0
   59.7736   80.2399   27.9695 H   0  0  0  0  0  0  0  0  0  0  0  0
   57.7820   78.9230   28.8650 H   0  0  0  0  0  0  0  0  0  0  0  0
   54.4955   79.7214   25.8627 H   0  0  0  0  0  0  0  0  0  0  0  0
   52.7123   77.9860   26.0009 H   0  0  0  0  0  0  0  0  0  0  0  0
   52.7158   75.2664   28.5898 H   0  0  0  0  0  0  0  0  0  0  0  0
   51.8621   74.3159   26.6753 H   0  0  0  0  0  0  0  0  0  0  0  0
   51.4070   75.8966   25.9536 H   0  0  0  0  0  0  0  0  0  0  0  0
   53.1245   75.3705   25.9536 H   0  0  0  0  0  0  0  0  0  0  0  0
   51.0837   76.6270   29.4950 H   0  0  0  0  0  0  0  0  0  0  0  0
   50.9728   77.6631   28.0318 H   0  0  0  0  0  0  0  0  0  0  0  0
   50.2320   76.0267   28.0318 H   0  0  0  0  0  0  0  0  0  0  0  0
   54.5032   76.4285   29.6142 H   0  0  0  0  0  0  0  0  0  0  0  0
   56.2811   78.1644   29.4793 H   0  0  0  0  0  0  0  0  0  0  0  0
   57.6286   79.5374   30.5724 H   0  0  0  0  0  0  0  0  0  0  0  0
   58.0118   80.0735   32.9707 H   0  0  0  0  0  0  0  0  0  0  0  0
  1  2  1  0
  2  3  1  0
  3  4  1  0
  4  5  2  0
  5  6  1  0
  6  7  1  0
  7  8  1  0
  8  9  1  0
  9 10  2  0
  9 11  1  0
 11 12  1  0
 12 13  2  0
 13 14  1  0
 14 15  1  0
 15 16  1  0
 15 17  1  0
 14 18  2  0
 18 19  1  0
  6 20  2  0
 20 21  1  0
 21  3  2  0
 19 11  2  0
  1 22  1  0
  1 23  1  0
  1 24  1  0
  4 25  1  0
  5 26  1  0
  7 27  1  0
  7 28  1  0
  8 29  1  0
 12 30  1  0
 13 31  1  0
 15 32  1  0
 16 33  1  0
 16 34  1  0
 16 35  1  0
 17 36  1  0
 17 37  1  0
 17 38  1  0
 18 39  1  0
 19 40  1  0
 20 41  1  0
 21 42  1  0
M  END
>  <meeko>  (1) 
{"is_sidechain": false}

>  <smiles>  (1) 
COc1ccc(CNC(=O)c2ccc(C(C)C)cc2)cc1

>  <vina_score>  (1) 
-7.541

>  <job_id>  (1) 
87671c6c78af5357

$$$$
