
     RDKit          3D

 56 58  0  0  0  0  0  0  0  0999 V2000
   50.6860   80.9820   20.6580 C   0  0  0  0  0  0  0  0  0  0  0  0
   51.4220   81.7350   21.6790 N   0  0  0  0  0  0  0  0  0  0  0  0
   52.8510   81.7320   21.3480 C   0  0  0  0  0  0  0  0  0  0  0  0
   51.1780   81.1410   23.0100 C   0  0  0  0  0  0  0  0  0  0  0  0
   52.3910   80.4060   23.6120 C   0  0  0  0  0  0  0  0  0  0  0  0
   52.1970   78.9910   23.4410 O   0  0  0  0  0  0  0  0  0  0  0  0
   52.5630   80.7090   25.1080 C   0  0  0  0  0  0  0  0  0  0  0  0
   52.5600   79.4850   25.8600 O   0  0  0  0  0  0  0  0  0  0  0  0
   53.6240   79.2100   26.6700 C   0  0  0  0  0  0  0  0  0  0  0  0
   54.7400   80.0180   26.4530 C   0  0  0  0  0  0  0  0  0  0  0  0
   55.9050   79.8570   27.2120 C   0  0  0  0  0  0  0  0  0  0  0  0
   55.9770   78.8840   28.2110 C   0  0  0  0  0  0  0  0  0  0  0  0
   57.1190   78.6520   28.9970 N   0  0  0  0  0  0  0  0  0  0  0  0
   57.9700   79.5310   29.6710 C   0  0  0  0  0  0  0  0  0  0  0  0
   57.8110   79.8510   31.0110 C   0  0  0  0  0  0  0  0  0  0  0  0
   58.6890   80.7580   31.6150 C   0  0  0  0  0  0  0  0  0  0  0  0
   59.7220   81.3580   30.8930 C   0  0  0  0  0  0  0  0  0  0  0  0
   60.6080   82.2580   31.4590 N   0  0  0  0  0  0  0  0  0  0  0  0
   61.1120   82.1010   32.8320 C   0  0  0  0  0  0  0  0  0  0  0  0
   61.5950   83.4580   33.3940 C   0  0  0  0  0  0  0  0  0  0  0  0
   62.6510   84.1270   32.6130 N   0  0  0  0  0  0  0  0  0  0  0  0
   62.6270   83.7030   31.2030 C   0  0  0  0  0  0  0  0  0  0  0  0
   61.2380   83.3130   30.6440 C   0  0  0  0  0  0  0  0  0  0  0  0
   59.7660   80.9820   29.5470 C   0  0  0  0  0  0  0  0  0  0  0  0
   58.9300   80.1060   28.9260 N   0  0  0  0  0  0  0  0  0  0  0  0
   54.8500   78.0780   28.4220 C   0  0  0  0  0  0  0  0  0  0  0  0
   53.6830   78.2360   27.6620 C   0  0  0  0  0  0  0  0  0  0  0  0
   49.9974   80.2775   21.1473 H   0  0  0  0  0  0  0  0  0  0  0  0
   50.1120   81.6797   20.0305 H   0  0  0  0  0  0  0  0  0  0  0  0
   51.3966   80.4241   20.0305 H   0  0  0  0  0  0  0  0  0  0  0  0
   53.4422   81.7308   22.2756 H   0  0  0  0  0  0  0  0  0  0  0  0
   53.0893   80.8334   20.7601 H   0  0  0  0  0  0  0  0  0  0  0  0
   53.0931   82.6296   20.7601 H   0  0  0  0  0  0  0  0  0  0  0  0
   50.8884   81.9482   23.6989 H   0  0  0  0  0  0  0  0  0  0  0  0
   50.3887   80.3865   22.8767 H   0  0  0  0  0  0  0  0  0  0  0  0
   53.2969   80.7520   23.0928 H   0  0  0  0  0  0  0  0  0  0  0  0
   52.1680   78.6190   24.3440 H   0  0  0  0  0  0  0  0  0  0  0  0
   53.5178   81.2317   25.2665 H   0  0  0  0  0  0  0  0  0  0  0  0
   51.7303   81.3431   25.4464 H   0  0  0  0  0  0  0  0  0  0  0  0
   54.7041   80.7934   25.6736 H   0  0  0  0  0  0  0  0  0  0  0  0
   56.7734   80.5041   27.0194 H   0  0  0  0  0  0  0  0  0  0  0  0
   57.0380   77.8120   29.5650 H   0  0  0  0  0  0  0  0  0  0  0  0
   56.9991   79.3943   31.5960 H   0  0  0  0  0  0  0  0  0  0  0  0
   58.5626   81.0030   32.6799 H   0  0  0  0  0  0  0  0  0  0  0  0
   60.3054   81.7119   33.4707 H   0  0  0  0  0  0  0  0  0  0  0  0
   61.9601   81.4005   32.8201 H   0  0  0  0  0  0  0  0  0  0  0  0
   60.7282   84.1336   33.4408 H   0  0  0  0  0  0  0  0  0  0  0  0
   62.0384   83.2382   34.3764 H   0  0  0  0  0  0  0  0  0  0  0  0
   62.5010   85.1340   32.6700 H   0  0  0  0  0  0  0  0  0  0  0  0
   63.0159   84.5323   30.5939 H   0  0  0  0  0  0  0  0  0  0  0  0
   63.2377   82.7894   31.1538 H   0  0  0  0  0  0  0  0  0  0  0  0
   60.5894   84.2014   30.6448 H   0  0  0  0  0  0  0  0  0  0  0  0
   61.3712   82.9285   29.6220 H   0  0  0  0  0  0  0  0  0  0  0  0
   60.5534   81.4390   28.9296 H   0  0  0  0  0  0  0  0  0  0  0  0
   54.8821   77.3033   29.2023 H   0  0  0  0  0  0  0  0  0  0  0  0
   52.8131   77.5895   27.8499 H   0  0  0  0  0  0  0  0  0  0  0  0
  1  2  1  0
  2  3  1  0
  2  4  1  0
  4  5  1  0
  5  6  1  0
  5  7  1  0
  7  8  1  0
  8  9  1  0
  9 10  1  0
 10 11  2  0
 11 12  1  0
 12 13  1  0
 13 14  1  0
 14 15  2  0
 15 16  1  0
 16 17  2  0
 17 18  1  0
 18 19  1  0
 19 20  1  0
 20 21  1  0
 21 22  1  0
 22 23  1  0
 17 24  1  0
 24 25  2  0
 12 26  2  0
 26 27  1  0
 27  9  2  0
 25 14  1  0
 23 18  1  0
  1 28  1  0
  1 29  1  0
  1 30  1  0
  3 31  1  0
  3 32  1  0
  3 33  1  0
  4 34  1  0
  4 35  1  0
  5 36  1  0
  6 37  1  0
  7 38  1  0
  7 39  1  0
 10 40  1  0
 11 41  1  0
 13 42  1  0
 15 43  1  0
 16 44  1  0
 19 45  1  0
 19 46  1  0
 20 47  1  0
 20 48  1  0
 21 49  1  0
 22 50  1  0
 22 51  1  0
 23 52  1  0
 23 53  1  0
 24 54  1  0
 26 55  1  0
 27 56  1  0
M  END
>  <meeko>  (1) 
{"is_sidechain": false}

>  <smiles>  (1) 
CN(C)CC(O)COc1ccc(Nc2ccc(N3CCNCC3)cn2)cc1

>  <vina_score>  (1) 
-7.409

>  <job_id>  (1) 
87768314a762c3b1

$$$$
