
     RDKit          3D

 42 44  0  0  0  0  0  0  0  0999 V2000
   52.1850   75.7030   26.7970 N   0  0  0  0  0  0  0  0  0  0  0  0
   52.9150   75.3830   28.0170 C   0  0  0  0  0  0  0  0  0  0  0  0
   53.9340   76.4430   28.3460 C   0  0  0  0  0  0  0  0  0  0  0  0
   53.8380   77.7200   27.7780 C   0  0  0  0  0  0  0  0  0  0  0  0
   54.7810   78.7060   28.0760 C   0  0  0  0  0  0  0  0  0  0  0  0
   55.8470   78.4400   28.9460 C   0  0  0  0  0  0  0  0  0  0  0  0
   56.8560   79.5290   29.2590 C   0  0  0  0  0  0  0  0  0  0  0  0
   57.3820   79.4230   30.7060 C   0  0  0  0  0  0  0  0  0  0  0  0
   58.8430   79.8570   30.8340 C   0  0  0  0  0  0  0  0  0  0  0  0
   59.0830   81.0090   29.9650 N   0  0  0  0  0  0  0  0  0  0  0  0
   59.7890   82.1160   30.4240 C   0  0  0  0  0  0  0  0  0  0  0  0
   59.1510   83.2880   30.8640 C   0  0  0  0  0  0  0  0  0  0  0  0
   59.8680   84.3960   31.3360 C   0  0  0  0  0  0  0  0  0  0  0  0
   61.2550   84.3570   31.3950 C   0  0  0  0  0  0  0  0  0  0  0  0
   61.9180   83.2070   30.9910 C   0  0  0  0  0  0  0  0  0  0  0  0
   61.1930   82.1060   30.5180 C   0  0  0  0  0  0  0  0  0  0  0  0
   58.9340   80.7670   28.5250 C   0  0  0  0  0  0  0  0  0  0  0  0
   58.0110   79.5740   28.2470 C   0  0  0  0  0  0  0  0  0  0  0  0
   55.9370   77.1630   29.5200 C   0  0  0  0  0  0  0  0  0  0  0  0
   54.9920   76.1760   29.2220 C   0  0  0  0  0  0  0  0  0  0  0  0
   52.5310   75.1090   26.0440 H   0  0  0  0  0  0  0  0  0  0  0  0
   52.3900   76.6620   26.5270 H   0  0  0  0  0  0  0  0  0  0  0  0
   52.2010   75.3030   28.8500 H   0  0  0  0  0  0  0  0  0  0  0  0
   53.4450   74.4316   27.8621 H   0  0  0  0  0  0  0  0  0  0  0  0
   53.0109   77.9485   27.0898 H   0  0  0  0  0  0  0  0  0  0  0  0
   54.6859   79.7036   27.6223 H   0  0  0  0  0  0  0  0  0  0  0  0
   56.3169   80.4835   29.1675 H   0  0  0  0  0  0  0  0  0  0  0  0
   56.7658   80.0649   31.3527 H   0  0  0  0  0  0  0  0  0  0  0  0
   57.3208   78.3665   31.0062 H   0  0  0  0  0  0  0  0  0  0  0  0
   59.0541   80.1336   31.8775 H   0  0  0  0  0  0  0  0  0  0  0  0
   59.5013   79.0275   30.5364 H   0  0  0  0  0  0  0  0  0  0  0  0
   58.0524   83.3376   30.8371 H   0  0  0  0  0  0  0  0  0  0  0  0
   59.3305   85.2992   31.6607 H   0  0  0  0  0  0  0  0  0  0  0  0
   61.8213   85.2275   31.7577 H   0  0  0  0  0  0  0  0  0  0  0  0
   63.0158   83.1599   31.0423 H   0  0  0  0  0  0  0  0  0  0  0  0
   61.7397   81.2027   30.2095 H   0  0  0  0  0  0  0  0  0  0  0  0
   58.5084   81.6653   28.0539 H   0  0  0  0  0  0  0  0  0  0  0  0
   59.9266   80.5391   28.1093 H   0  0  0  0  0  0  0  0  0  0  0  0
   57.5974   79.6671   27.2320 H   0  0  0  0  0  0  0  0  0  0  0  0
   58.5962   78.6471   28.3391 H   0  0  0  0  0  0  0  0  0  0  0  0
   56.7606   76.9353   30.2127 H   0  0  0  0  0  0  0  0  0  0  0  0
   55.0813   75.1802   29.6807 H   0  0  0  0  0  0  0  0  0  0  0  0
  1  2  1  0
  2  3  1  0
  3  4  1  0
  4  5  2  0
  5  6  1  0
  6  7  1  0
  7  8  1  0
  8  9  1  0
  9 10  1  0
 10 11  1  0
 11 12  2  0
 12 13  1  0
 13 14  2  0
 14 15  1  0
 15 16  2  0
 10 17  1  0
 17 18  1  0
  6 19  2  0
 19 20  1  0
 20  3  2  0
 18  7  1  0
 16 11  1  0
  1 21  1  0
  1 22  1  0
  2 23  1  0
  2 24  1  0
  4 25  1  0
  5 26  1  0
  7 27  1  0
  8 28  1  0
  8 29  1  0
  9 30  1  0
  9 31  1  0
 12 32  1  0
 13 33  1  0
 14 34  1  0
 15 35  1  0
 16 36  1  0
 17 37  1  0
 17 38  1  0
 18 39  1  0
 18 40  1  0
 19 41  1  0
 20 42  1  0
M  END
>  <meeko>  (1) 
{"is_sidechain": false}

>  <smiles>  (1) 
NCc1ccc(C2CCN(c3ccccc3)CC2)cc1

>  <vina_score>  (1) 
-7.053

>  <job_id>  (1) 
877afad996328d61

$$$$
