
     RDKit          3D

 57 61  0  0  0  0  0  0  0  0999 V2000
   56.4680   81.3820   26.8360 C   0  0  0  0  0  0  0  0  0  0  0  0
   55.2230   80.7840   26.4190 N   0  0  0  0  0  0  0  0  0  0  0  0
   54.5380   81.3390   25.3970 N   0  0  0  0  0  0  0  0  0  0  0  0
   53.4530   80.5580   25.2280 C   0  0  0  0  0  0  0  0  0  0  0  0
   52.4460   80.8650   24.1990 C   0  0  0  0  0  0  0  0  0  0  0  0
   52.9250   80.9830   22.9180 N   0  0  0  0  0  0  0  0  0  0  0  0
   51.2420   80.9820   24.4050 O   0  0  0  0  0  0  0  0  0  0  0  0
   53.4760   79.4850   26.1630 C   0  0  0  0  0  0  0  0  0  0  0  0
   54.6200   79.6700   26.9170 C   0  0  0  0  0  0  0  0  0  0  0  0
   55.0330   78.7710   27.9790 C   0  0  0  0  0  0  0  0  0  0  0  0
   56.0150   79.1750   28.8000 N   0  0  0  0  0  0  0  0  0  0  0  0
   56.3530   78.3270   29.7850 C   0  0  0  0  0  0  0  0  0  0  0  0
   57.3680   78.7830   30.6220 N   0  0  0  0  0  0  0  0  0  0  0  0
   58.2610   79.8570   30.5750 C   0  0  0  0  0  0  0  0  0  0  0  0
   58.4560   80.6210   31.7310 C   0  0  0  0  0  0  0  0  0  0  0  0
   59.3390   81.7100   31.7490 C   0  0  0  0  0  0  0  0  0  0  0  0
   60.0740   82.0840   30.6160 C   0  0  0  0  0  0  0  0  0  0  0  0
   60.9370   83.1870   30.6780 N   0  0  0  0  0  0  0  0  0  0  0  0
   60.4660   84.2720   31.5750 C   0  0  0  0  0  0  0  0  0  0  0  0
   61.3310   85.5390   31.3960 C   0  0  0  0  0  0  0  0  0  0  0  0
   62.7830   85.3050   31.5890 N   0  0  0  0  0  0  0  0  0  0  0  0
   63.3970   85.2810   33.1320 S   0  0  0  0  0  0  0  0  0  0  0  0
   64.8360   84.5110   32.9400 N   0  0  0  0  0  0  0  0  0  0  0  0
   63.1880   84.2370   30.6450 C   0  0  0  0  0  0  0  0  0  0  0  0
   62.3860   82.9290   30.8160 C   0  0  0  0  0  0  0  0  0  0  0  0
   59.8610   81.3260   29.4580 C   0  0  0  0  0  0  0  0  0  0  0  0
   58.9780   80.2330   29.4400 C   0  0  0  0  0  0  0  0  0  0  0  0
   55.7670   77.1300   29.9650 N   0  0  0  0  0  0  0  0  0  0  0  0
   54.7900   76.7690   29.1120 C   0  0  0  0  0  0  0  0  0  0  0  0
   54.3560   77.5680   28.0880 C   0  0  0  0  0  0  0  0  0  0  0  0
   53.3090   77.1520   27.0840 C   0  0  0  0  0  0  0  0  0  0  0  0
   52.5600   78.3350   26.4160 C   0  0  0  0  0  0  0  0  0  0  0  0
   56.5142   81.4042   27.9348 H   0  0  0  0  0  0  0  0  0  0  0  0
   57.3084   80.7893   26.4456 H   0  0  0  0  0  0  0  0  0  0  0  0
   56.5306   82.4085   26.4456 H   0  0  0  0  0  0  0  0  0  0  0  0
   52.2020   80.9980   22.2120 H   0  0  0  0  0  0  0  0  0  0  0  0
   53.7900   80.5210   22.6770 H   0  0  0  0  0  0  0  0  0  0  0  0
   57.4490   78.1620   31.4120 H   0  0  0  0  0  0  0  0  0  0  0  0
   57.9040   80.3613   32.6464 H   0  0  0  0  0  0  0  0  0  0  0  0
   59.4581   82.2867   32.6781 H   0  0  0  0  0  0  0  0  0  0  0  0
   59.4197   84.5115   31.3342 H   0  0  0  0  0  0  0  0  0  0  0  0
   60.5479   83.9310   32.6176 H   0  0  0  0  0  0  0  0  0  0  0  0
   61.1743   85.9249   30.3779 H   0  0  0  0  0  0  0  0  0  0  0  0
   61.0161   86.2539   32.1705 H   0  0  0  0  0  0  0  0  0  0  0  0
   64.9250   83.7770   33.6400 H   0  0  0  0  0  0  0  0  0  0  0  0
   65.6080   85.1540   33.1050 H   0  0  0  0  0  0  0  0  0  0  0  0
   63.0403   84.6046   29.6188 H   0  0  0  0  0  0  0  0  0  0  0  0
   64.2416   84.0010   30.8553 H   0  0  0  0  0  0  0  0  0  0  0  0
   62.7001   82.2088   30.0462 H   0  0  0  0  0  0  0  0  0  0  0  0
   62.5804   82.5217   31.8192 H   0  0  0  0  0  0  0  0  0  0  0  0
   60.3997   81.5935   28.5370 H   0  0  0  0  0  0  0  0  0  0  0  0
   58.8496   79.6611   28.5092 H   0  0  0  0  0  0  0  0  0  0  0  0
   54.3174   75.7845   29.2440 H   0  0  0  0  0  0  0  0  0  0  0  0
   53.8024   76.5665   26.2942 H   0  0  0  0  0  0  0  0  0  0  0  0
   52.5545   76.5732   27.6369 H   0  0  0  0  0  0  0  0  0  0  0  0
   52.1376   77.9964   25.4585 H   0  0  0  0  0  0  0  0  0  0  0  0
   51.7636   78.6697   27.0970 H   0  0  0  0  0  0  0  0  0  0  0  0
  1  2  1  0
  2  3  1  0
  3  4  2  0
  4  5  1  0
  5  6  1  0
  5  7  2  0
  4  8  1  0
  8  9  2  0
  9 10  1  0
 10 11  2  0
 11 12  1  0
 12 13  1  0
 13 14  1  0
 14 15  1  0
 15 16  2  0
 16 17  1  0
 17 18  1  0
 18 19  1  0
 19 20  1  0
 20 21  1  0
 21 22  1  0
 22 23  1  0
 21 24  1  0
 24 25  1  0
 17 26  2  0
 26 27  1  0
 12 28  2  0
 28 29  1  0
 29 30  2  0
 30 31  1  0
 31 32  1  0
  9  2  1  0
 30 10  1  0
 32  8  1  0
 27 14  2  0
 25 18  1  0
  1 33  1  0
  1 34  1  0
  1 35  1  0
  6 36  1  0
  6 37  1  0
 13 38  1  0
 15 39  1  0
 16 40  1  0
 19 41  1  0
 19 42  1  0
 20 43  1  0
 20 44  1  0
 23 45  1  0
 23 46  1  0
 24 47  1  0
 24 48  1  0
 25 49  1  0
 25 50  1  0
 26 51  1  0
 27 52  1  0
 29 53  1  0
 31 54  1  0
 31 55  1  0
 32 56  1  0
 32 57  1  0
M  END
>  <meeko>  (1) 
{"is_sidechain": false}

>  <smiles>  (1) 
Cn1nc(C(N)=O)c2c1-c1nc(Nc3ccc(N4CCN(SN)CC4)cc3)ncc1CC2

>  <vina_score>  (1) 
-8.482

>  <job_id>  (1) 
87c0c096eb84fd9e

$$$$
