
     RDKit          3D

 37 39  0  0  0  0  0  0  0  0999 V2000
   56.3040   80.2480   26.9220 F   0  0  0  0  0  0  0  0  0  0  0  0
   55.7930   79.2390   27.6450 C   0  0  0  0  0  0  0  0  0  0  0  0
   54.4590   78.8980   27.4160 C   0  0  0  0  0  0  0  0  0  0  0  0
   53.8600   77.8900   28.1670 C   0  0  0  0  0  0  0  0  0  0  0  0
   54.5990   77.2310   29.1450 C   0  0  0  0  0  0  0  0  0  0  0  0
   55.9350   77.5790   29.3700 C   0  0  0  0  0  0  0  0  0  0  0  0
   56.5600   78.5940   28.6260 C   0  0  0  0  0  0  0  0  0  0  0  0
   57.9200   78.8620   28.8760 N   0  0  0  0  0  0  0  0  0  0  0  0
   58.5640   79.8580   29.6300 C   0  0  0  0  0  0  0  0  0  0  0  0
   58.4160   79.8570   31.0190 C   0  0  0  0  0  0  0  0  0  0  0  0
   59.0130   80.8450   31.8170 C   0  0  0  0  0  0  0  0  0  0  0  0
   59.7740   81.8850   31.2670 C   0  0  0  0  0  0  0  0  0  0  0  0
   60.3630   82.8580   32.0520 N   0  0  0  0  0  0  0  0  0  0  0  0
   60.0700   82.9790   33.4900 C   0  0  0  0  0  0  0  0  0  0  0  0
   61.2840   83.5630   34.2310 C   0  0  0  0  0  0  0  0  0  0  0  0
   61.6950   84.8550   33.7610 O   0  0  0  0  0  0  0  0  0  0  0  0
   61.4070   85.0680   32.3720 C   0  0  0  0  0  0  0  0  0  0  0  0
   61.3820   83.7810   31.5300 C   0  0  0  0  0  0  0  0  0  0  0  0
   59.9050   81.8770   29.8730 C   0  0  0  0  0  0  0  0  0  0  0  0
   59.3100   80.8900   29.0690 C   0  0  0  0  0  0  0  0  0  0  0  0
   53.8812   79.4253   26.6426 H   0  0  0  0  0  0  0  0  0  0  0  0
   52.8096   77.6164   27.9885 H   0  0  0  0  0  0  0  0  0  0  0  0
   54.1314   76.4346   29.7425 H   0  0  0  0  0  0  0  0  0  0  0  0
   56.5075   77.0477   30.1445 H   0  0  0  0  0  0  0  0  0  0  0  0
   58.5580   78.3000   28.3260 H   0  0  0  0  0  0  0  0  0  0  0  0
   57.8195   79.0659   31.4969 H   0  0  0  0  0  0  0  0  0  0  0  0
   58.8794   80.8016   32.9080 H   0  0  0  0  0  0  0  0  0  0  0  0
   59.2046   83.6434   33.6300 H   0  0  0  0  0  0  0  0  0  0  0  0
   59.8468   81.9815   33.8964 H   0  0  0  0  0  0  0  0  0  0  0  0
   61.0284   83.6492   35.2974 H   0  0  0  0  0  0  0  0  0  0  0  0
   62.1251   82.8781   34.0481 H   0  0  0  0  0  0  0  0  0  0  0  0
   60.4217   85.5509   32.2938 H   0  0  0  0  0  0  0  0  0  0  0  0
   62.2197   85.6922   31.9722 H   0  0  0  0  0  0  0  0  0  0  0  0
   61.1444   84.0333   30.4860 H   0  0  0  0  0  0  0  0  0  0  0  0
   62.3682   83.2966   31.5816 H   0  0  0  0  0  0  0  0  0  0  0  0
   60.4941   82.6708   29.3905 H   0  0  0  0  0  0  0  0  0  0  0  0
   59.4362   80.9339   27.9771 H   0  0  0  0  0  0  0  0  0  0  0  0
  1  2  1  0
  2  3  2  0
  3  4  1  0
  4  5  2  0
  5  6  1  0
  6  7  2  0
  7  8  1  0
  8  9  1  0
  9 10  1  0
 10 11  2  0
 11 12  1  0
 12 13  1  0
 13 14  1  0
 14 15  1  0
 15 16  1  0
 16 17  1  0
 17 18  1  0
 12 19  2  0
 19 20  1  0
  7  2  1  0
 20  9  2  0
 18 13  1  0
  3 21  1  0
  4 22  1  0
  5 23  1  0
  6 24  1  0
  8 25  1  0
 10 26  1  0
 11 27  1  0
 14 28  1  0
 14 29  1  0
 15 30  1  0
 15 31  1  0
 17 32  1  0
 17 33  1  0
 18 34  1  0
 18 35  1  0
 19 36  1  0
 20 37  1  0
M  END
>  <meeko>  (1) 
{"is_sidechain": false}

>  <smiles>  (1) 
Fc1ccccc1Nc1ccc(N2CCOCC2)cc1

>  <vina_score>  (1) 
-7.499

>  <job_id>  (1) 
87df7ab6171f807d

$$$$
