
     RDKit          3D

 44 46  0  0  0  0  0  0  0  0999 V2000
   55.9660   79.8830   27.6290 O   0  0  0  0  0  0  0  0  0  0  0  0
   56.0930   79.0090   28.4770 C   0  0  0  0  0  0  0  0  0  0  0  0
   57.0650   78.9340   29.4580 N   0  0  0  0  0  0  0  0  0  0  0  0
   58.0660   79.8860   29.7450 C   0  0  0  0  0  0  0  0  0  0  0  0
   58.2450   80.2420   31.0870 C   0  0  0  0  0  0  0  0  0  0  0  0
   59.2140   81.1830   31.4550 C   0  0  0  0  0  0  0  0  0  0  0  0
   60.0250   81.7860   30.4870 C   0  0  0  0  0  0  0  0  0  0  0  0
   61.0760   82.8040   30.8790 C   0  0  0  0  0  0  0  0  0  0  0  0
   62.3690   82.2830   31.3490 N   0  0  0  0  0  0  0  0  0  0  0  0
   63.5200   82.8540   30.6450 C   0  0  0  0  0  0  0  0  0  0  0  0
   64.8050   82.1110   31.0200 C   0  0  0  0  0  0  0  0  0  0  0  0
   65.0250   82.1070   32.5280 C   0  0  0  0  0  0  0  0  0  0  0  0
   63.7820   81.5950   33.2490 C   0  0  0  0  0  0  0  0  0  0  0  0
   62.5290   82.3540   32.8050 C   0  0  0  0  0  0  0  0  0  0  0  0
   59.8340   81.4340   29.1450 C   0  0  0  0  0  0  0  0  0  0  0  0
   58.8660   80.4940   28.7780 C   0  0  0  0  0  0  0  0  0  0  0  0
   55.1420   77.8610   28.4550 C   0  0  0  0  0  0  0  0  0  0  0  0
   55.3790   76.6940   29.1930 C   0  0  0  0  0  0  0  0  0  0  0  0
   54.4620   75.6410   29.1450 C   0  0  0  0  0  0  0  0  0  0  0  0
   53.3070   75.7550   28.3700 C   0  0  0  0  0  0  0  0  0  0  0  0
   53.0590   76.9230   27.6480 C   0  0  0  0  0  0  0  0  0  0  0  0
   53.9720   77.9780   27.6940 C   0  0  0  0  0  0  0  0  0  0  0  0
   57.1140   78.0760   29.9890 H   0  0  0  0  0  0  0  0  0  0  0  0
   57.6170   79.7770   31.8612 H   0  0  0  0  0  0  0  0  0  0  0  0
   59.3390   81.4508   32.5146 H   0  0  0  0  0  0  0  0  0  0  0  0
   61.2724   83.4338   29.9988 H   0  0  0  0  0  0  0  0  0  0  0  0
   60.6508   83.3345   31.7438 H   0  0  0  0  0  0  0  0  0  0  0  0
   63.3578   82.7706   29.5602 H   0  0  0  0  0  0  0  0  0  0  0  0
   63.6241   83.9101   30.9345 H   0  0  0  0  0  0  0  0  0  0  0  0
   64.7340   81.0720   30.6659 H   0  0  0  0  0  0  0  0  0  0  0  0
   65.6538   82.6272   30.5476 H   0  0  0  0  0  0  0  0  0  0  0  0
   65.8770   81.4538   32.7676 H   0  0  0  0  0  0  0  0  0  0  0  0
   65.2299   83.1355   32.8599 H   0  0  0  0  0  0  0  0  0  0  0  0
   63.6520   80.5261   33.0239 H   0  0  0  0  0  0  0  0  0  0  0  0
   63.9181   81.7516   34.3293 H   0  0  0  0  0  0  0  0  0  0  0  0
   61.6467   81.9081   33.2874 H   0  0  0  0  0  0  0  0  0  0  0  0
   62.6319   83.4091   33.0986 H   0  0  0  0  0  0  0  0  0  0  0  0
   60.4548   81.9040   28.3680 H   0  0  0  0  0  0  0  0  0  0  0  0
   58.7345   80.2320   27.7178 H   0  0  0  0  0  0  0  0  0  0  0  0
   56.2859   76.6069   29.8094 H   0  0  0  0  0  0  0  0  0  0  0  0
   54.6505   74.7214   29.7185 H   0  0  0  0  0  0  0  0  0  0  0  0
   52.5901   74.9217   28.3282 H   0  0  0  0  0  0  0  0  0  0  0  0
   52.1447   77.0124   27.0430 H   0  0  0  0  0  0  0  0  0  0  0  0
   53.7723   78.9022   27.1320 H   0  0  0  0  0  0  0  0  0  0  0  0
  1  2  2  0
  2  3  1  0
  3  4  1  0
  4  5  1  0
  5  6  2  0
  6  7  1  0
  7  8  1  0
  8  9  1  0
  9 10  1  0
 10 11  1  0
 11 12  1  0
 12 13  1  0
 13 14  1  0
  7 15  2  0
 15 16  1  0
  2 17  1  0
 17 18  2  0
 18 19  1  0
 19 20  2  0
 20 21  1  0
 21 22  2  0
 16  4  2  0
 22 17  1  0
 14  9  1  0
  3 23  1  0
  5 24  1  0
  6 25  1  0
  8 26  1  0
  8 27  1  0
 10 28  1  0
 10 29  1  0
 11 30  1  0
 11 31  1  0
 12 32  1  0
 12 33  1  0
 13 34  1  0
 13 35  1  0
 14 36  1  0
 14 37  1  0
 15 38  1  0
 16 39  1  0
 18 40  1  0
 19 41  1  0
 20 42  1  0
 21 43  1  0
 22 44  1  0
M  END
>  <meeko>  (1) 
{"is_sidechain": false}

>  <smiles>  (1) 
O=C(Nc1ccc(CN2CCCCC2)cc1)c1ccccc1

>  <vina_score>  (1) 
-7.719

>  <job_id>  (1) 
880b77badf30781b

$$$$
