
     RDKit          3D

 39 40  0  0  0  0  0  0  0  0999 V2000
   58.6150   79.8960   31.3890 C   0  0  0  0  0  0  0  0  0  0  0  0
   58.2240   80.2930   29.9670 C   0  0  0  0  0  0  0  0  0  0  0  0
   59.4770   80.6070   29.1470 C   0  0  0  0  0  0  0  0  0  0  0  0
   57.5080   79.2020   29.3070 N   0  0  0  0  0  0  0  0  0  0  0  0
   56.6200   79.4160   28.2540 C   0  0  0  0  0  0  0  0  0  0  0  0
   56.8200   80.5310   27.4310 C   0  0  0  0  0  0  0  0  0  0  0  0
   55.9350   80.8460   26.3910 C   0  0  0  0  0  0  0  0  0  0  0  0
   54.7970   80.0660   26.1530 C   0  0  0  0  0  0  0  0  0  0  0  0
   53.8620   80.3920   25.0630 C   0  0  0  0  0  0  0  0  0  0  0  0
   53.4550   81.7190   24.8350 C   0  0  0  0  0  0  0  0  0  0  0  0
   52.5670   82.0350   23.8030 C   0  0  0  0  0  0  0  0  0  0  0  0
   52.0830   81.0170   22.9800 C   0  0  0  0  0  0  0  0  0  0  0  0
   50.9470   81.4100   21.6730 S   0  0  0  0  0  0  0  0  0  0  0  0
   51.3240   83.1040   21.3050 C   0  0  0  0  0  0  0  0  0  0  0  0
   49.6060   81.3570   22.2260 O   0  0  0  0  0  0  0  0  0  0  0  0
   51.3080   80.6070   20.5200 O   0  0  0  0  0  0  0  0  0  0  0  0
   52.4560   79.6900   23.1950 C   0  0  0  0  0  0  0  0  0  0  0  0
   53.3460   79.3860   24.2290 C   0  0  0  0  0  0  0  0  0  0  0  0
   54.5730   78.9730   27.0010 C   0  0  0  0  0  0  0  0  0  0  0  0
   55.4640   78.6630   28.0400 C   0  0  0  0  0  0  0  0  0  0  0  0
   58.0313   80.4887   32.1088 H   0  0  0  0  0  0  0  0  0  0  0  0
   58.4078   78.8265   31.5412 H   0  0  0  0  0  0  0  0  0  0  0  0
   59.6876   80.0870   31.5412 H   0  0  0  0  0  0  0  0  0  0  0  0
   57.5759   81.1796   30.0292 H   0  0  0  0  0  0  0  0  0  0  0  0
   60.3164   80.8174   29.8261 H   0  0  0  0  0  0  0  0  0  0  0  0
   59.7260   79.7435   28.5127 H   0  0  0  0  0  0  0  0  0  0  0  0
   59.2894   81.4859   28.5127 H   0  0  0  0  0  0  0  0  0  0  0  0
   57.1730   78.4950   29.9570 H   0  0  0  0  0  0  0  0  0  0  0  0
   57.6939   81.1760   27.6052 H   0  0  0  0  0  0  0  0  0  0  0  0
   56.1374   81.7186   25.7525 H   0  0  0  0  0  0  0  0  0  0  0  0
   53.8422   82.5217   25.4799 H   0  0  0  0  0  0  0  0  0  0  0  0
   52.2525   83.0765   23.6409 H   0  0  0  0  0  0  0  0  0  0  0  0
   51.4487   83.6641   22.2435 H   0  0  0  0  0  0  0  0  0  0  0  0
   52.2553   83.1540   20.7217 H   0  0  0  0  0  0  0  0  0  0  0  0
   50.5019   83.5442   20.7217 H   0  0  0  0  0  0  0  0  0  0  0  0
   52.0532   78.8900   22.5564 H   0  0  0  0  0  0  0  0  0  0  0  0
   53.6477   78.3409   24.3926 H   0  0  0  0  0  0  0  0  0  0  0  0
   53.6819   78.3462   26.8494 H   0  0  0  0  0  0  0  0  0  0  0  0
   55.2472   77.8095   28.6991 H   0  0  0  0  0  0  0  0  0  0  0  0
  1  2  1  0
  2  3  1  0
  2  4  1  0
  4  5  1  0
  5  6  1  0
  6  7  2  0
  7  8  1  0
  8  9  1  0
  9 10  1  0
 10 11  2  0
 11 12  1  0
 12 13  1  0
 13 14  1  0
 13 15  2  0
 13 16  2  0
 12 17  2  0
 17 18  1  0
  8 19  2  0
 19 20  1  0
 20  5  2  0
 18  9  2  0
  1 21  1  0
  1 22  1  0
  1 23  1  0
  2 24  1  0
  3 25  1  0
  3 26  1  0
  3 27  1  0
  4 28  1  0
  6 29  1  0
  7 30  1  0
 10 31  1  0
 11 32  1  0
 14 33  1  0
 14 34  1  0
 14 35  1  0
 17 36  1  0
 18 37  1  0
 19 38  1  0
 20 39  1  0
M  END
>  <meeko>  (1) 
{"is_sidechain": false}

>  <smiles>  (1) 
CC(C)Nc1ccc(-c2ccc(S(C)(=O)=O)cc2)cc1

>  <vina_score>  (1) 
-7.405

>  <job_id>  (1) 
88124d6320c8e163

$$$$
