
     RDKit          3D

 47 49  0  0  0  0  0  0  0  0999 V2000
   58.9030   84.3420   31.0200 C   0  0  0  0  0  0  0  0  0  0  0  0
   60.3090   83.8040   31.0240 C   0  0  0  0  0  0  0  0  0  0  0  0
   61.3590   84.6590   31.3990 C   0  0  0  0  0  0  0  0  0  0  0  0
   62.6700   84.1980   31.4100 C   0  0  0  0  0  0  0  0  0  0  0  0
   63.6570   85.0270   31.7760 F   0  0  0  0  0  0  0  0  0  0  0  0
   62.9720   82.8940   31.0480 C   0  0  0  0  0  0  0  0  0  0  0  0
   61.9420   82.0360   30.6640 C   0  0  0  0  0  0  0  0  0  0  0  0
   60.6010   82.4740   30.6370 C   0  0  0  0  0  0  0  0  0  0  0  0
   59.5520   81.5280   30.2200 C   0  0  0  0  0  0  0  0  0  0  0  0
   59.3500   81.3020   28.8450 C   0  0  0  0  0  0  0  0  0  0  0  0
   58.4020   80.3780   28.3960 C   0  0  0  0  0  0  0  0  0  0  0  0
   57.6520   79.6490   29.3210 C   0  0  0  0  0  0  0  0  0  0  0  0
   56.6310   78.6780   28.8730 C   0  0  0  0  0  0  0  0  0  0  0  0
   56.6850   77.5410   29.3340 O   0  0  0  0  0  0  0  0  0  0  0  0
   55.6670   79.0910   27.9620 N   0  0  0  0  0  0  0  0  0  0  0  0
   55.7490   80.3080   27.1440 C   0  0  0  0  0  0  0  0  0  0  0  0
   55.0770   80.1230   25.7700 C   0  0  0  0  0  0  0  0  0  0  0  0
   53.6500   79.7580   25.8690 N   0  0  0  0  0  0  0  0  0  0  0  0
   53.1710   79.2060   24.6050 C   0  0  0  0  0  0  0  0  0  0  0  0
   53.3770   78.8520   27.0050 C   0  0  0  0  0  0  0  0  0  0  0  0
   54.6100   78.1470   27.5970 C   0  0  0  0  0  0  0  0  0  0  0  0
   57.8100   79.8720   30.6890 C   0  0  0  0  0  0  0  0  0  0  0  0
   58.7490   80.8140   31.1340 C   0  0  0  0  0  0  0  0  0  0  0  0
   58.8670   80.9820   32.5940 C   0  0  0  0  0  0  0  0  0  0  0  0
   59.7590   80.5300   33.2860 O   0  0  0  0  0  0  0  0  0  0  0  0
   57.8100   81.6300   33.1080 O   0  0  0  0  0  0  0  0  0  0  0  0
   58.5580   84.4740   32.0561 H   0  0  0  0  0  0  0  0  0  0  0  0
   58.8828   85.3114   30.5005 H   0  0  0  0  0  0  0  0  0  0  0  0
   58.2409   83.6337   30.5005 H   0  0  0  0  0  0  0  0  0  0  0  0
   61.1422   85.6987   31.6854 H   0  0  0  0  0  0  0  0  0  0  0  0
   64.0134   82.5400   31.0636 H   0  0  0  0  0  0  0  0  0  0  0  0
   62.1788   81.0007   30.3774 H   0  0  0  0  0  0  0  0  0  0  0  0
   59.9485   81.8622   28.1115 H   0  0  0  0  0  0  0  0  0  0  0  0
   58.2474   80.2257   27.3176 H   0  0  0  0  0  0  0  0  0  0  0  0
   55.2480   81.1293   27.6772 H   0  0  0  0  0  0  0  0  0  0  0  0
   56.8122   80.5347   26.9758 H   0  0  0  0  0  0  0  0  0  0  0  0
   55.1593   81.0662   25.2100 H   0  0  0  0  0  0  0  0  0  0  0  0
   55.5931   79.2959   25.2606 H   0  0  0  0  0  0  0  0  0  0  0  0
   52.4623   78.3893   24.8067 H   0  0  0  0  0  0  0  0  0  0  0  0
   52.6666   79.9951   24.0280 H   0  0  0  0  0  0  0  0  0  0  0  0
   54.0233   78.8178   24.0280 H   0  0  0  0  0  0  0  0  0  0  0  0
   52.9069   79.4427   27.8050 H   0  0  0  0  0  0  0  0  0  0  0  0
   52.7323   78.0538   26.6084 H   0  0  0  0  0  0  0  0  0  0  0  0
   54.3032   77.5940   28.4970 H   0  0  0  0  0  0  0  0  0  0  0  0
   55.0129   77.4711   26.8283 H   0  0  0  0  0  0  0  0  0  0  0  0
   57.2016   79.3122   31.4146 H   0  0  0  0  0  0  0  0  0  0  0  0
   57.7840   81.3530   34.0470 H   0  0  0  0  0  0  0  0  0  0  0  0
  1  2  1  0
  2  3  1  0
  3  4  2  0
  4  5  1  0
  4  6  1  0
  6  7  2  0
  7  8  1  0
  8  9  1  0
  9 10  1  0
 10 11  2  0
 11 12  1  0
 12 13  1  0
 13 14  2  0
 13 15  1  0
 15 16  1  0
 16 17  1  0
 17 18  1  0
 18 19  1  0
 18 20  1  0
 20 21  1  0
 12 22  2  0
 22 23  1  0
 23 24  1  0
 24 25  2  0
 24 26  1  0
  8  2  2  0
 23  9  2  0
 21 15  1  0
  1 27  1  0
  1 28  1  0
  1 29  1  0
  3 30  1  0
  6 31  1  0
  7 32  1  0
 10 33  1  0
 11 34  1  0
 16 35  1  0
 16 36  1  0
 17 37  1  0
 17 38  1  0
 19 39  1  0
 19 40  1  0
 19 41  1  0
 20 42  1  0
 20 43  1  0
 21 44  1  0
 21 45  1  0
 22 46  1  0
 26 47  1  0
M  END
>  <meeko>  (1) 
{"is_sidechain": false}

>  <smiles>  (1) 
Cc1cc(F)ccc1-c1ccc(C(=O)N2CCN(C)CC2)cc1C(=O)O

>  <vina_score>  (1) 
-7.362

>  <job_id>  (1) 
8819b3d686b07108

$$$$
