
     RDKit          3D

 35 36  0  0  0  0  0  0  0  0999 V2000
   52.9340   80.9180   23.4050 C   0  0  0  0  0  0  0  0  0  0  0  0
   53.0250   80.3380   24.7350 N   0  0  0  0  0  0  0  0  0  0  0  0
   52.2760   81.0220   25.7800 C   0  0  0  0  0  0  0  0  0  0  0  0
   53.5750   79.0650   24.8570 C   0  0  0  0  0  0  0  0  0  0  0  0
   53.8680   78.3570   23.8950 O   0  0  0  0  0  0  0  0  0  0  0  0
   53.8440   78.5150   26.2060 C   0  0  0  0  0  0  0  0  0  0  0  0
   53.0490   77.4980   26.7410 C   0  0  0  0  0  0  0  0  0  0  0  0
   53.3240   77.0170   28.0190 C   0  0  0  0  0  0  0  0  0  0  0  0
   54.3620   77.5730   28.7700 C   0  0  0  0  0  0  0  0  0  0  0  0
   54.6440   76.9900   29.9410 F   0  0  0  0  0  0  0  0  0  0  0  0
   55.1260   78.6390   28.2720 C   0  0  0  0  0  0  0  0  0  0  0  0
   56.1760   79.2790   28.9710 N   0  0  0  0  0  0  0  0  0  0  0  0
   57.5310   79.1120   28.7400 C   0  0  0  0  0  0  0  0  0  0  0  0
   58.0500   78.2690   28.0200 O   0  0  0  0  0  0  0  0  0  0  0  0
   58.4190   79.9920   29.5370 C   0  0  0  0  0  0  0  0  0  0  0  0
   58.4710   79.8580   30.9260 C   0  0  0  0  0  0  0  0  0  0  0  0
   59.3100   80.6910   31.6640 C   0  0  0  0  0  0  0  0  0  0  0  0
   60.0750   81.6250   30.9820 C   0  0  0  0  0  0  0  0  0  0  0  0
   60.0610   81.7700   29.6380 N   0  0  0  0  0  0  0  0  0  0  0  0
   59.2430   80.9400   28.9450 C   0  0  0  0  0  0  0  0  0  0  0  0
   54.8680   79.0920   26.9710 C   0  0  0  0  0  0  0  0  0  0  0  0
   52.7640   82.0016   23.4884 H   0  0  0  0  0  0  0  0  0  0  0  0
   53.8719   80.7349   22.8602 H   0  0  0  0  0  0  0  0  0  0  0  0
   52.0973   80.4564   22.8602 H   0  0  0  0  0  0  0  0  0  0  0  0
   52.6369   80.6924   26.7654 H   0  0  0  0  0  0  0  0  0  0  0  0
   52.4183   82.1083   25.6819 H   0  0  0  0  0  0  0  0  0  0  0  0
   51.2070   80.7819   25.6819 H   0  0  0  0  0  0  0  0  0  0  0  0
   52.2141   77.0813   26.1586 H   0  0  0  0  0  0  0  0  0  0  0  0
   52.7221   76.1971   28.4378 H   0  0  0  0  0  0  0  0  0  0  0  0
   55.9180   79.7330   29.8390 H   0  0  0  0  0  0  0  0  0  0  0  0
   57.8548   79.1012   31.4335 H   0  0  0  0  0  0  0  0  0  0  0  0
   59.3639   80.6096   32.7597 H   0  0  0  0  0  0  0  0  0  0  0  0
   60.7307   82.2857   31.5681 H   0  0  0  0  0  0  0  0  0  0  0  0
   59.2314   81.0225   27.8482 H   0  0  0  0  0  0  0  0  0  0  0  0
   55.4734   79.9065   26.5467 H   0  0  0  0  0  0  0  0  0  0  0  0
  1  2  1  0
  2  3  1  0
  2  4  1  0
  4  5  2  0
  4  6  1  0
  6  7  1  0
  7  8  2  0
  8  9  1  0
  9 10  1  0
  9 11  2  0
 11 12  1  0
 12 13  1  0
 13 14  2  0
 13 15  1  0
 15 16  1  0
 16 17  2  0
 17 18  1  0
 18 19  2  0
 19 20  1  0
 11 21  1  0
 21  6  2  0
 20 15  2  0
  1 22  1  0
  1 23  1  0
  1 24  1  0
  3 25  1  0
  3 26  1  0
  3 27  1  0
  7 28  1  0
  8 29  1  0
 12 30  1  0
 16 31  1  0
 17 32  1  0
 18 33  1  0
 20 34  1  0
 21 35  1  0
M  END
>  <meeko>  (1) 
{"is_sidechain": false}

>  <smiles>  (1) 
CN(C)C(=O)c1ccc(F)c(NC(=O)c2cccnc2)c1

>  <vina_score>  (1) 
-7.879

>  <job_id>  (1) 
88a767a19713a540

$$$$
