
     RDKit          3D

 52 54  0  0  0  0  0  0  0  0999 V2000
   59.7350   83.5230   33.1580 C   0  0  0  0  0  0  0  0  0  0  0  0
   59.9960   82.4300   32.2220 N   0  0  0  0  0  0  0  0  0  0  0  0
   60.7410   82.9180   31.0560 C   0  0  0  0  0  0  0  0  0  0  0  0
   60.8950   81.9230   29.8950 C   0  0  0  0  0  0  0  0  0  0  0  0
   59.5520   81.5300   29.2750 C   0  0  0  0  0  0  0  0  0  0  0  0
   59.0050   80.2980   29.8540 N   0  0  0  0  0  0  0  0  0  0  0  0
   57.8350   79.7880   29.2560 C   0  0  0  0  0  0  0  0  0  0  0  0
   57.0550   78.7680   29.8170 C   0  0  0  0  0  0  0  0  0  0  0  0
   55.9030   78.2990   29.1740 C   0  0  0  0  0  0  0  0  0  0  0  0
   55.4960   78.8370   27.9480 C   0  0  0  0  0  0  0  0  0  0  0  0
   54.2380   78.3440   27.2660 C   0  0  0  0  0  0  0  0  0  0  0  0
   53.8050   79.1800   26.1350 N   0  0  0  0  0  0  0  0  0  0  0  0
   52.8830   80.2530   26.5220 C   0  0  0  0  0  0  0  0  0  0  0  0
   52.9090   81.5430   25.6940 C   0  0  0  0  0  0  0  0  0  0  0  0
   52.5210   81.3880   24.2170 C   0  0  0  0  0  0  0  0  0  0  0  0
   53.3740   80.4470   23.5050 N   0  0  0  0  0  0  0  0  0  0  0  0
   52.9880   79.0350   23.6850 C   0  0  0  0  0  0  0  0  0  0  0  0
   53.3230   78.3350   25.0310 C   0  0  0  0  0  0  0  0  0  0  0  0
   56.2600   79.8630   27.3830 C   0  0  0  0  0  0  0  0  0  0  0  0
   57.4110   80.3260   28.0310 C   0  0  0  0  0  0  0  0  0  0  0  0
   58.9470   80.2460   31.3320 C   0  0  0  0  0  0  0  0  0  0  0  0
   58.7770   81.6620   31.9230 C   0  0  0  0  0  0  0  0  0  0  0  0
   59.8237   83.1514   34.1895 H   0  0  0  0  0  0  0  0  0  0  0  0
   60.4661   84.3284   32.9942 H   0  0  0  0  0  0  0  0  0  0  0  0
   58.7189   83.9112   32.9942 H   0  0  0  0  0  0  0  0  0  0  0  0
   60.2204   83.8074   30.6712 H   0  0  0  0  0  0  0  0  0  0  0  0
   61.7613   83.1167   31.4158 H   0  0  0  0  0  0  0  0  0  0  0  0
   61.5210   82.3838   29.1167 H   0  0  0  0  0  0  0  0  0  0  0  0
   61.3561   81.0093   30.2981 H   0  0  0  0  0  0  0  0  0  0  0  0
   58.8342   82.3468   29.4412 H   0  0  0  0  0  0  0  0  0  0  0  0
   59.7188   81.3500   28.2027 H   0  0  0  0  0  0  0  0  0  0  0  0
   57.3531   78.3278   30.7800 H   0  0  0  0  0  0  0  0  0  0  0  0
   55.3102   77.4973   29.6386 H   0  0  0  0  0  0  0  0  0  0  0  0
   54.4228   77.3258   26.8930 H   0  0  0  0  0  0  0  0  0  0  0  0
   53.4338   78.3803   28.0156 H   0  0  0  0  0  0  0  0  0  0  0  0
   51.8625   79.8463   26.4660 H   0  0  0  0  0  0  0  0  0  0  0  0
   53.2143   80.5581   27.5256 H   0  0  0  0  0  0  0  0  0  0  0  0
   52.2096   82.2559   26.1551 H   0  0  0  0  0  0  0  0  0  0  0  0
   53.9551   81.8830   25.6974 H   0  0  0  0  0  0  0  0  0  0  0  0
   51.4819   81.0312   24.1622 H   0  0  0  0  0  0  0  0  0  0  0  0
   52.6409   82.3711   23.7383 H   0  0  0  0  0  0  0  0  0  0  0  0
   53.3840   80.6640   22.5090 H   0  0  0  0  0  0  0  0  0  0  0  0
   51.8974   78.9783   23.5534 H   0  0  0  0  0  0  0  0  0  0  0  0
   53.5972   78.4955   22.9449 H   0  0  0  0  0  0  0  0  0  0  0  0
   52.4084   77.8312   25.3769 H   0  0  0  0  0  0  0  0  0  0  0  0
   54.1675   77.6697   24.7981 H   0  0  0  0  0  0  0  0  0  0  0  0
   55.9549   80.3084   26.4246 H   0  0  0  0  0  0  0  0  0  0  0  0
   57.9986   81.1325   27.5681 H   0  0  0  0  0  0  0  0  0  0  0  0
   58.0940   79.6225   31.6379 H   0  0  0  0  0  0  0  0  0  0  0  0
   59.8879   79.8174   31.7074 H   0  0  0  0  0  0  0  0  0  0  0  0
   58.1870   82.2493   31.2040 H   0  0  0  0  0  0  0  0  0  0  0  0
   58.3042   81.4991   32.9027 H   0  0  0  0  0  0  0  0  0  0  0  0
  1  2  1  0
  2  3  1  0
  3  4  1  0
  4  5  1  0
  5  6  1  0
  6  7  1  0
  7  8  1  0
  8  9  2  0
  9 10  1  0
 10 11  1  0
 11 12  1  0
 12 13  1  0
 13 14  1  0
 14 15  1  0
 15 16  1  0
 16 17  1  0
 17 18  1  0
 10 19  2  0
 19 20  1  0
  6 21  1  0
 21 22  1  0
 22  2  1  0
 20  7  2  0
 18 12  1  0
  1 23  1  0
  1 24  1  0
  1 25  1  0
  3 26  1  0
  3 27  1  0
  4 28  1  0
  4 29  1  0
  5 30  1  0
  5 31  1  0
  8 32  1  0
  9 33  1  0
 11 34  1  0
 11 35  1  0
 13 36  1  0
 13 37  1  0
 14 38  1  0
 14 39  1  0
 15 40  1  0
 15 41  1  0
 16 42  1  0
 17 43  1  0
 17 44  1  0
 18 45  1  0
 18 46  1  0
 19 47  1  0
 20 48  1  0
 21 49  1  0
 21 50  1  0
 22 51  1  0
 22 52  1  0
M  END
>  <meeko>  (1) 
{"is_sidechain": false}

>  <smiles>  (1) 
CN1CCCN(c2ccc(CN3CCCNCC3)cc2)CC1

>  <vina_score>  (1) 
-4.611

>  <job_id>  (1) 
88b8cf46be798381

$$$$
