
     RDKit          3D

 56 60  0  0  0  0  0  0  0  0999 V2000
   49.4220   81.0150   22.1300 N   0  0  0  0  0  0  0  0  0  0  0  0
   50.8840   81.5670   21.5190 S   0  0  0  0  0  0  0  0  0  0  0  0
   50.6850   82.9660   21.2150 O   0  0  0  0  0  0  0  0  0  0  0  0
   51.2880   80.6060   20.5210 O   0  0  0  0  0  0  0  0  0  0  0  0
   51.9450   81.4240   22.9280 C   0  0  0  0  0  0  0  0  0  0  0  0
   52.4510   80.1720   23.2870 C   0  0  0  0  0  0  0  0  0  0  0  0
   53.3090   80.0670   24.3860 C   0  0  0  0  0  0  0  0  0  0  0  0
   53.6660   81.2010   25.1270 C   0  0  0  0  0  0  0  0  0  0  0  0
   54.5540   81.0620   26.2080 N   0  0  0  0  0  0  0  0  0  0  0  0
   55.0220   79.9020   26.2460 N   0  0  0  0  0  0  0  0  0  0  0  0
   55.9260   79.7650   27.3150 C   0  0  0  0  0  0  0  0  0  0  0  0
   55.7500   78.8040   28.3190 C   0  0  0  0  0  0  0  0  0  0  0  0
   56.6830   78.6730   29.3540 C   0  0  0  0  0  0  0  0  0  0  0  0
   57.8280   79.4770   29.3860 C   0  0  0  0  0  0  0  0  0  0  0  0
   58.7200   79.3810   30.4850 N   0  0  0  0  0  0  0  0  0  0  0  0
   58.4280   80.1380   31.6350 O   0  0  0  0  0  0  0  0  0  0  0  0
   59.6640   80.6040   32.2180 C   0  0  0  0  0  0  0  0  0  0  0  0
   59.7970   82.0930   32.2090 C   0  0  0  0  0  0  0  0  0  0  0  0
   58.8240   83.0240   32.5170 C   0  0  0  0  0  0  0  0  0  0  0  0
   57.5540   82.8940   32.8710 O   0  0  0  0  0  0  0  0  0  0  0  0
   59.3640   84.2720   32.4030 N   0  0  0  0  0  0  0  0  0  0  0  0
   60.6830   84.1910   32.0320 C   0  0  0  0  0  0  0  0  0  0  0  0
   61.6190   85.2030   31.8050 C   0  0  0  0  0  0  0  0  0  0  0  0
   62.9130   84.8170   31.4340 C   0  0  0  0  0  0  0  0  0  0  0  0
   63.2740   83.4710   31.2900 C   0  0  0  0  0  0  0  0  0  0  0  0
   64.6270   83.0910   30.9020 C   0  0  0  0  0  0  0  0  0  0  0  0
   65.7180   83.7360   30.3570 C   0  0  0  0  0  0  0  0  0  0  0  0
   66.7650   82.8620   30.1960 N   0  0  0  0  0  0  0  0  0  0  0  0
   66.2800   81.7280   30.6450 C   0  0  0  0  0  0  0  0  0  0  0  0
   64.9960   81.7820   31.0890 O   0  0  0  0  0  0  0  0  0  0  0  0
   62.3030   82.4790   31.5260 C   0  0  0  0  0  0  0  0  0  0  0  0
   60.9870   82.8360   31.9020 C   0  0  0  0  0  0  0  0  0  0  0  0
   57.9920   80.4510   28.3940 C   0  0  0  0  0  0  0  0  0  0  0  0
   57.0590   80.5810   27.3610 C   0  0  0  0  0  0  0  0  0  0  0  0
   53.1690   82.4540   24.7360 C   0  0  0  0  0  0  0  0  0  0  0  0
   52.3100   82.5700   23.6390 C   0  0  0  0  0  0  0  0  0  0  0  0
   49.5550   80.6540   23.0750 H   0  0  0  0  0  0  0  0  0  0  0  0
   48.7180   81.7520   22.0650 H   0  0  0  0  0  0  0  0  0  0  0  0
   52.1767   79.2766   22.7099 H   0  0  0  0  0  0  0  0  0  0  0  0
   53.7082   79.0827   24.6720 H   0  0  0  0  0  0  0  0  0  0  0  0
   54.8693   78.1455   28.2936 H   0  0  0  0  0  0  0  0  0  0  0  0
   56.5148   77.9317   30.1491 H   0  0  0  0  0  0  0  0  0  0  0  0
   59.6750   79.5360   30.1550 H   0  0  0  0  0  0  0  0  0  0  0  0
   59.7118   80.2554   33.2602 H   0  0  0  0  0  0  0  0  0  0  0  0
   60.4851   80.1996   31.6079 H   0  0  0  0  0  0  0  0  0  0  0  0
   57.4820   82.0250   33.3240 H   0  0  0  0  0  0  0  0  0  0  0  0
   58.8520   85.1250   32.5740 H   0  0  0  0  0  0  0  0  0  0  0  0
   61.3495   86.2639   31.9137 H   0  0  0  0  0  0  0  0  0  0  0  0
   63.6691   85.5944   31.2500 H   0  0  0  0  0  0  0  0  0  0  0  0
   65.7455   84.8024   30.0886 H   0  0  0  0  0  0  0  0  0  0  0  0
   66.8703   80.8000   30.6610 H   0  0  0  0  0  0  0  0  0  0  0  0
   62.5701   81.4175   31.4170 H   0  0  0  0  0  0  0  0  0  0  0  0
   58.8639   81.1209   28.4276 H   0  0  0  0  0  0  0  0  0  0  0  0
   57.2188   81.3343   26.5755 H   0  0  0  0  0  0  0  0  0  0  0  0
   53.4583   83.3540   25.2984 H   0  0  0  0  0  0  0  0  0  0  0  0
   51.9247   83.5554   23.3382 H   0  0  0  0  0  0  0  0  0  0  0  0
  1  2  1  0
  2  3  2  0
  2  4  2  0
  2  5  1  0
  5  6  1  0
  6  7  2  0
  7  8  1  0
  8  9  1  0
  9 10  2  3
 10 11  1  0
 11 12  1  0
 12 13  2  0
 13 14  1  0
 14 15  1  0
 15 16  1  0
 16 17  1  0
 17 18  1  0
 18 19  2  0
 19 20  1  0
 19 21  1  0
 21 22  1  0
 22 23  2  0
 23 24  1  0
 24 25  2  0
 25 26  1  0
 26 27  2  0
 27 28  1  0
 28 29  2  0
 29 30  1  0
 25 31  1  0
 31 32  2  0
 14 33  2  0
 33 34  1  0
  8 35  2  0
 35 36  1  0
 36  5  2  0
 34 11  2  0
 32 18  1  0
 32 22  1  0
 30 26  1  0
  1 37  1  0
  1 38  1  0
  6 39  1  0
  7 40  1  0
 12 41  1  0
 13 42  1  0
 15 43  1  0
 17 44  1  0
 17 45  1  0
 20 46  1  0
 21 47  1  0
 23 48  1  0
 24 49  1  0
 27 50  1  0
 29 51  1  0
 31 52  1  0
 33 53  1  0
 34 54  1  0
 35 55  1  0
 36 56  1  0
M  END
>  <meeko>  (1) 
{"is_sidechain": false}

>  <smiles>  (1) 
NS(=O)(=O)c1ccc(N=Nc2ccc(NOCc3c(O)[nH]c4ccc(-c5cnco5)cc34)cc2)cc1

>  <vina_score>  (1) 
-9.128

>  <job_id>  (1) 
88bca0e1ec36ea0f

$$$$
