
     RDKit          3D

 46 48  0  0  0  0  0  0  0  0999 V2000
   58.4870   81.0140   32.7880 C   0  0  0  0  0  0  0  0  0  0  0  0
   59.4530   80.6520   31.6700 C   0  0  0  0  0  0  0  0  0  0  0  0
   58.9370   79.4930   30.9480 N   0  0  0  0  0  0  0  0  0  0  0  0
   58.1940   79.8150   29.7970 C   0  0  0  0  0  0  0  0  0  0  0  0
   58.4470   81.0320   29.1770 C   0  0  0  0  0  0  0  0  0  0  0  0
   57.7100   81.3970   28.0530 C   0  0  0  0  0  0  0  0  0  0  0  0
   56.7120   80.5490   27.5640 C   0  0  0  0  0  0  0  0  0  0  0  0
   56.5260   79.3370   28.2380 C   0  0  0  0  0  0  0  0  0  0  0  0
   57.2390   78.9840   29.3400 N   0  0  0  0  0  0  0  0  0  0  0  0
   55.4660   78.3590   27.8070 C   0  0  0  0  0  0  0  0  0  0  0  0
   54.0530   78.8990   28.0350 C   0  0  0  0  0  0  0  0  0  0  0  0
   53.8730   80.3790   27.6430 C   0  0  0  0  0  0  0  0  0  0  0  0
   54.4930   80.6720   26.3480 N   0  0  0  0  0  0  0  0  0  0  0  0
   53.7100   80.9100   25.2210 C   0  0  0  0  0  0  0  0  0  0  0  0
   53.2560   79.8670   24.3910 C   0  0  0  0  0  0  0  0  0  0  0  0
   52.4610   80.1020   23.2610 C   0  0  0  0  0  0  0  0  0  0  0  0
   52.1000   81.4050   22.9330 C   0  0  0  0  0  0  0  0  0  0  0  0
   51.0700   81.7100   21.5310 S   0  0  0  0  0  0  0  0  0  0  0  0
   49.5500   81.3210   22.1270 N   0  0  0  0  0  0  0  0  0  0  0  0
   51.0380   83.1280   21.2620 O   0  0  0  0  0  0  0  0  0  0  0  0
   51.3560   80.7330   20.5070 O   0  0  0  0  0  0  0  0  0  0  0  0
   52.5090   82.4630   23.7380 C   0  0  0  0  0  0  0  0  0  0  0  0
   53.3050   82.2100   24.8630 C   0  0  0  0  0  0  0  0  0  0  0  0
   55.9390   80.9500   26.3220 C   0  0  0  0  0  0  0  0  0  0  0  0
   58.9679   80.8338   33.7608 H   0  0  0  0  0  0  0  0  0  0  0  0
   58.2125   82.0760   32.7058 H   0  0  0  0  0  0  0  0  0  0  0  0
   57.5821   80.3940   32.7058 H   0  0  0  0  0  0  0  0  0  0  0  0
   59.5516   81.5022   30.9790 H   0  0  0  0  0  0  0  0  0  0  0  0
   60.4391   80.4141   32.0955 H   0  0  0  0  0  0  0  0  0  0  0  0
   58.3680   78.8980   31.5430 H   0  0  0  0  0  0  0  0  0  0  0  0
   59.2244   81.7031   29.5712 H   0  0  0  0  0  0  0  0  0  0  0  0
   57.9134   82.3536   27.5495 H   0  0  0  0  0  0  0  0  0  0  0  0
   55.5951   78.1463   26.7355 H   0  0  0  0  0  0  0  0  0  0  0  0
   55.5809   77.4483   28.4132 H   0  0  0  0  0  0  0  0  0  0  0  0
   53.3525   78.2962   27.4384 H   0  0  0  0  0  0  0  0  0  0  0  0
   53.8586   78.8316   29.1156 H   0  0  0  0  0  0  0  0  0  0  0  0
   52.7980   80.6046   27.5836 H   0  0  0  0  0  0  0  0  0  0  0  0
   54.3624   81.0000   28.4077 H   0  0  0  0  0  0  0  0  0  0  0  0
   53.5350   78.8320   24.6381 H   0  0  0  0  0  0  0  0  0  0  0  0
   52.1243   79.2610   22.6369 H   0  0  0  0  0  0  0  0  0  0  0  0
   49.4250   81.7330   23.0520 H   0  0  0  0  0  0  0  0  0  0  0  0
   48.8330   81.5950   21.4530 H   0  0  0  0  0  0  0  0  0  0  0  0
   52.2092   83.4926   23.4928 H   0  0  0  0  0  0  0  0  0  0  0  0
   53.6246   83.0566   25.4883 H   0  0  0  0  0  0  0  0  0  0  0  0
   56.3710   80.4096   25.4668 H   0  0  0  0  0  0  0  0  0  0  0  0
   56.0311   82.0440   26.2537 H   0  0  0  0  0  0  0  0  0  0  0  0
  1  2  1  0
  2  3  1  0
  3  4  1  0
  4  5  1  0
  5  6  2  0
  6  7  1  0
  7  8  2  0
  8  9  1  0
  8 10  1  0
 10 11  1  0
 11 12  1  0
 12 13  1  0
 13 14  1  0
 14 15  1  0
 15 16  2  0
 16 17  1  0
 17 18  1  0
 18 19  1  0
 18 20  2  0
 18 21  2  0
 17 22  2  0
 22 23  1  0
 13 24  1  0
  9  4  2  0
 23 14  2  0
 24  7  1  0
  1 25  1  0
  1 26  1  0
  1 27  1  0
  2 28  1  0
  2 29  1  0
  3 30  1  0
  5 31  1  0
  6 32  1  0
 10 33  1  0
 10 34  1  0
 11 35  1  0
 11 36  1  0
 12 37  1  0
 12 38  1  0
 15 39  1  0
 16 40  1  0
 19 41  1  0
 19 42  1  0
 22 43  1  0
 23 44  1  0
 24 45  1  0
 24 46  1  0
M  END
>  <meeko>  (1) 
{"is_sidechain": false}

>  <smiles>  (1) 
CCNc1ccc2c(n1)CCCN(c1ccc(S(N)(=O)=O)cc1)C2

>  <vina_score>  (1) 
-6.507

>  <job_id>  (1) 
894b1e1588b59782

$$$$
