
     RDKit          3D

 41 43  0  0  0  0  0  0  0  0999 V2000
   52.0780   80.2340   24.4090 O   0  0  0  0  0  0  0  0  0  0  0  0
   52.6150   80.6060   25.4330 C   0  0  0  0  0  0  0  0  0  0  0  0
   52.5600   81.9070   25.7780 O   0  0  0  0  0  0  0  0  0  0  0  0
   53.3510   79.9370   26.3520 N   0  0  0  0  0  0  0  0  0  0  0  0
   53.4630   78.5660   26.4310 C   0  0  0  0  0  0  0  0  0  0  0  0
   52.9340   77.7580   25.6800 O   0  0  0  0  0  0  0  0  0  0  0  0
   54.2810   78.0630   27.5700 C   0  0  0  0  0  0  0  0  0  0  0  0
   54.0020   76.8440   28.1970 C   0  0  0  0  0  0  0  0  0  0  0  0
   54.7950   76.4180   29.2610 C   0  0  0  0  0  0  0  0  0  0  0  0
   55.8590   77.2100   29.7040 C   0  0  0  0  0  0  0  0  0  0  0  0
   56.1500   78.4450   29.1000 C   0  0  0  0  0  0  0  0  0  0  0  0
   57.2630   79.2820   29.5790 C   0  0  0  0  0  0  0  0  0  0  0  0
   57.4900   79.4820   30.9450 C   0  0  0  0  0  0  0  0  0  0  0  0
   58.5530   80.2800   31.3950 C   0  0  0  0  0  0  0  0  0  0  0  0
   59.4440   80.9100   30.5110 C   0  0  0  0  0  0  0  0  0  0  0  0
   60.4870   81.7090   30.9880 N   0  0  0  0  0  0  0  0  0  0  0  0
   60.7340   82.9710   30.2700 C   0  0  0  0  0  0  0  0  0  0  0  0
   61.5620   83.9750   31.0540 C   0  0  0  0  0  0  0  0  0  0  0  0
   62.2290   83.7680   32.1430 N   0  0  0  0  0  0  0  0  0  0  0  0
   62.1720   82.3830   32.6390 C   0  0  0  0  0  0  0  0  0  0  0  0
   60.8020   81.7320   32.4210 C   0  0  0  0  0  0  0  0  0  0  0  0
   59.1940   80.7160   29.1450 C   0  0  0  0  0  0  0  0  0  0  0  0
   58.1350   79.9170   28.6870 C   0  0  0  0  0  0  0  0  0  0  0  0
   55.3400   78.8590   28.0300 C   0  0  0  0  0  0  0  0  0  0  0  0
   51.5930   82.0780   25.7790 H   0  0  0  0  0  0  0  0  0  0  0  0
   53.6730   80.5130   27.1120 H   0  0  0  0  0  0  0  0  0  0  0  0
   53.1609   76.2248   27.8520 H   0  0  0  0  0  0  0  0  0  0  0  0
   54.5836   75.4572   29.7531 H   0  0  0  0  0  0  0  0  0  0  0  0
   56.4802   76.8595   30.5414 H   0  0  0  0  0  0  0  0  0  0  0  0
   56.8236   79.0054   31.6790 H   0  0  0  0  0  0  0  0  0  0  0  0
   58.6932   80.4168   32.4774 H   0  0  0  0  0  0  0  0  0  0  0  0
   61.2654   82.7391   29.3352 H   0  0  0  0  0  0  0  0  0  0  0  0
   59.7523   83.4353   30.0946 H   0  0  0  0  0  0  0  0  0  0  0  0
   61.5986   84.9969   30.6485 H   0  0  0  0  0  0  0  0  0  0  0  0
   62.9320   81.7886   32.1107 H   0  0  0  0  0  0  0  0  0  0  0  0
   62.3577   82.4106   33.7229 H   0  0  0  0  0  0  0  0  0  0  0  0
   60.8209   80.7024   32.8077 H   0  0  0  0  0  0  0  0  0  0  0  0
   60.0342   82.3128   32.9532 H   0  0  0  0  0  0  0  0  0  0  0  0
   59.8487   81.2056   28.4090 H   0  0  0  0  0  0  0  0  0  0  0  0
   57.9872   79.7871   27.6047 H   0  0  0  0  0  0  0  0  0  0  0  0
   55.5399   79.8253   27.5439 H   0  0  0  0  0  0  0  0  0  0  0  0
  1  2  2  0
  2  3  1  0
  2  4  1  0
  4  5  1  0
  5  6  2  0
  5  7  1  0
  7  8  1  0
  8  9  2  0
  9 10  1  0
 10 11  2  0
 11 12  1  0
 12 13  1  0
 13 14  2  0
 14 15  1  0
 15 16  1  0
 16 17  1  0
 17 18  1  0
 18 19  2  0
 19 20  1  0
 20 21  1  0
 15 22  2  0
 22 23  1  0
 11 24  1  0
 24  7  2  0
 23 12  2  0
 21 16  1  0
  3 25  1  0
  4 26  1  0
  8 27  1  0
  9 28  1  0
 10 29  1  0
 13 30  1  0
 14 31  1  0
 17 32  1  0
 17 33  1  0
 18 34  1  0
 20 35  1  0
 20 36  1  0
 21 37  1  0
 21 38  1  0
 22 39  1  0
 23 40  1  0
 24 41  1  0
M  END
>  <meeko>  (1) 
{"is_sidechain": false}

>  <smiles>  (1) 
O=C(O)NC(=O)c1cccc(-c2ccc(N3CC=NCC3)cc2)c1

>  <vina_score>  (1) 
-8.653

>  <job_id>  (1) 
8a59b4e98ec8f9f7

$$$$
