
     RDKit          3D

 38 40  0  0  0  0  0  0  0  0999 V2000
   58.6520   82.1970   31.3770 C   0  0  0  0  0  0  0  0  0  0  0  0
   59.2600   80.9500   30.7600 C   0  0  0  0  0  0  0  0  0  0  0  0
   58.9880   80.8780   29.2610 C   0  0  0  0  0  0  0  0  0  0  0  0
   58.2140   79.6270   28.8990 C   0  0  0  0  0  0  0  0  0  0  0  0
   58.5600   78.8920   27.9760 O   0  0  0  0  0  0  0  0  0  0  0  0
   57.1030   79.4150   29.6980 N   0  0  0  0  0  0  0  0  0  0  0  0
   56.2680   78.3300   29.5100 C   0  0  0  0  0  0  0  0  0  0  0  0
   56.3100   77.1870   30.2720 N   0  0  0  0  0  0  0  0  0  0  0  0
   55.4080   76.2460   29.9230 N   0  0  0  0  0  0  0  0  0  0  0  0
   54.7400   76.7830   28.8890 C   0  0  0  0  0  0  0  0  0  0  0  0
   53.6900   76.2460   28.1320 C   0  0  0  0  0  0  0  0  0  0  0  0
   53.2270   77.1070   27.1080 C   0  0  0  0  0  0  0  0  0  0  0  0
   51.9230   76.4820   26.1390 Cl  0  0  0  0  0  0  0  0  0  0  0  0
   53.7650   78.4230   26.8400 C   0  0  0  0  0  0  0  0  0  0  0  0
   53.2320   79.2630   25.7550 C   0  0  0  0  0  0  0  0  0  0  0  0
   52.5600   80.4610   26.0410 C   0  0  0  0  0  0  0  0  0  0  0  0
   52.0640   81.2640   25.0110 C   0  0  0  0  0  0  0  0  0  0  0  0
   52.2360   80.8790   23.6830 C   0  0  0  0  0  0  0  0  0  0  0  0
   52.9030   79.6920   23.3830 C   0  0  0  0  0  0  0  0  0  0  0  0
   53.3990   78.8900   24.4130 C   0  0  0  0  0  0  0  0  0  0  0  0
   54.8310   78.9670   27.6100 C   0  0  0  0  0  0  0  0  0  0  0  0
   55.2630   78.0980   28.6080 C   0  0  0  0  0  0  0  0  0  0  0  0
   58.6899   82.1193   32.4736 H   0  0  0  0  0  0  0  0  0  0  0  0
   59.2201   83.0812   31.0522 H   0  0  0  0  0  0  0  0  0  0  0  0
   57.6055   82.2939   31.0522 H   0  0  0  0  0  0  0  0  0  0  0  0
   60.3474   80.9631   30.9257 H   0  0  0  0  0  0  0  0  0  0  0  0
   58.8017   80.0708   31.2364 H   0  0  0  0  0  0  0  0  0  0  0  0
   58.4034   81.7600   28.9606 H   0  0  0  0  0  0  0  0  0  0  0  0
   59.9536   80.8520   28.7348 H   0  0  0  0  0  0  0  0  0  0  0  0
   56.8890   80.0640   30.4460 H   0  0  0  0  0  0  0  0  0  0  0  0
   56.9450   77.0080   31.0470 H   0  0  0  0  0  0  0  0  0  0  0  0
   53.2651   75.2483   28.3163 H   0  0  0  0  0  0  0  0  0  0  0  0
   52.4222   80.7713   27.0873 H   0  0  0  0  0  0  0  0  0  0  0  0
   51.5376   82.2003   25.2484 H   0  0  0  0  0  0  0  0  0  0  0  0
   51.8458   81.5112   22.8718 H   0  0  0  0  0  0  0  0  0  0  0  0
   53.0386   79.3872   22.3348 H   0  0  0  0  0  0  0  0  0  0  0  0
   53.9263   77.9558   24.1695 H   0  0  0  0  0  0  0  0  0  0  0  0
   55.2650   79.9627   27.4360 H   0  0  0  0  0  0  0  0  0  0  0  0
  1  2  1  0
  2  3  1  0
  3  4  1  0
  4  5  2  0
  4  6  1  0
  6  7  1  0
  7  8  1  0
  8  9  1  0
  9 10  2  0
 10 11  1  0
 11 12  2  0
 12 13  1  0
 12 14  1  0
 14 15  1  0
 15 16  2  0
 16 17  1  0
 17 18  2  0
 18 19  1  0
 19 20  2  0
 14 21  2  0
 21 22  1  0
 22  7  2  0
 22 10  1  0
 20 15  1  0
  1 23  1  0
  1 24  1  0
  1 25  1  0
  2 26  1  0
  2 27  1  0
  3 28  1  0
  3 29  1  0
  6 30  1  0
  8 31  1  0
 11 32  1  0
 16 33  1  0
 17 34  1  0
 18 35  1  0
 19 36  1  0
 20 37  1  0
 21 38  1  0
M  END
>  <meeko>  (1) 
{"is_sidechain": false}

>  <smiles>  (1) 
CCCC(=O)Nc1[nH]nc2cc(Cl)c(-c3ccccc3)cc12

>  <vina_score>  (1) 
-7.648

>  <job_id>  (1) 
8a6f19719aaf5f72

$$$$
