
     RDKit          3D

 60 62  0  0  0  0  0  0  0  0999 V2000
   61.5170   79.8580   34.5450 C   0  0  0  0  0  0  0  0  0  0  0  0
   62.7150   80.2740   34.9800 C   0  0  0  0  0  0  0  0  0  0  0  0
   63.3590   79.5850   36.1600 C   0  0  0  0  0  0  0  0  0  0  0  0
   63.4460   81.3070   34.4160 N   0  0  0  0  0  0  0  0  0  0  0  0
   63.0340   82.7110   34.3640 C   0  0  0  0  0  0  0  0  0  0  0  0
   62.8770   83.1630   32.9020 C   0  0  0  0  0  0  0  0  0  0  0  0
   62.0050   82.2930   32.1290 N   0  0  0  0  0  0  0  0  0  0  0  0
   60.6450   82.4990   32.0700 C   0  0  0  0  0  0  0  0  0  0  0  0
   60.0870   83.3920   32.7000 O   0  0  0  0  0  0  0  0  0  0  0  0
   59.8460   81.5920   31.2000 C   0  0  0  0  0  0  0  0  0  0  0  0
   60.0560   81.6410   29.8180 C   0  0  0  0  0  0  0  0  0  0  0  0
   59.3270   80.8050   28.9610 C   0  0  0  0  0  0  0  0  0  0  0  0
   58.3770   79.8960   29.4560 C   0  0  0  0  0  0  0  0  0  0  0  0
   57.6780   79.1000   28.5430 N   0  0  0  0  0  0  0  0  0  0  0  0
   56.3490   78.7080   28.4200 C   0  0  0  0  0  0  0  0  0  0  0  0
   55.7230   78.0080   29.3790 N   0  0  0  0  0  0  0  0  0  0  0  0
   54.4360   77.6650   29.1590 C   0  0  0  0  0  0  0  0  0  0  0  0
   53.7530   78.0020   28.0220 C   0  0  0  0  0  0  0  0  0  0  0  0
   52.4770   77.6360   27.8480 F   0  0  0  0  0  0  0  0  0  0  0  0
   54.4600   78.7370   27.0980 C   0  0  0  0  0  0  0  0  0  0  0  0
   53.8850   79.1430   25.8240 C   0  0  0  0  0  0  0  0  0  0  0  0
   53.3310   78.3350   24.8470 C   0  0  0  0  0  0  0  0  0  0  0  0
   52.9160   79.0560   23.7690 N   0  0  0  0  0  0  0  0  0  0  0  0
   53.1900   80.3100   24.0520 C   0  0  0  0  0  0  0  0  0  0  0  0
   52.9240   81.4520   23.1380 C   0  0  0  0  0  0  0  0  0  0  0  0
   53.7500   80.4260   25.3180 N   0  0  0  0  0  0  0  0  0  0  0  0
   54.0570   81.7080   25.9570 C   0  0  0  0  0  0  0  0  0  0  0  0
   55.5600   81.9660   26.0580 C   0  0  0  0  0  0  0  0  0  0  0  0
   53.3330   81.9540   27.2830 C   0  0  0  0  0  0  0  0  0  0  0  0
   55.7520   79.0900   27.2770 N   0  0  0  0  0  0  0  0  0  0  0  0
   58.1770   79.8600   30.8370 C   0  0  0  0  0  0  0  0  0  0  0  0
   58.9030   80.6930   31.6930 C   0  0  0  0  0  0  0  0  0  0  0  0
   58.6640   80.5970   33.0120 F   0  0  0  0  0  0  0  0  0  0  0  0
   61.0410   80.3542   33.6864 H   0  0  0  0  0  0  0  0  0  0  0  0
   61.0101   79.0205   35.0467 H   0  0  0  0  0  0  0  0  0  0  0  0
   62.9621   80.0096   37.0939 H   0  0  0  0  0  0  0  0  0  0  0  0
   63.1358   78.5085   36.1227 H   0  0  0  0  0  0  0  0  0  0  0  0
   64.4481   79.7351   36.1227 H   0  0  0  0  0  0  0  0  0  0  0  0
   64.4460   81.2160   34.5910 H   0  0  0  0  0  0  0  0  0  0  0  0
   62.0727   82.8275   34.8859 H   0  0  0  0  0  0  0  0  0  0  0  0
   63.8022   83.3295   34.8511 H   0  0  0  0  0  0  0  0  0  0  0  0
   62.4561   84.1793   32.8925 H   0  0  0  0  0  0  0  0  0  0  0  0
   63.8735   83.1270   32.4376 H   0  0  0  0  0  0  0  0  0  0  0  0
   62.4330   81.5660   31.5660 H   0  0  0  0  0  0  0  0  0  0  0  0
   60.7970   82.3392   29.4016 H   0  0  0  0  0  0  0  0  0  0  0  0
   59.5027   80.8619   27.8766 H   0  0  0  0  0  0  0  0  0  0  0  0
   58.2220   78.6340   27.8290 H   0  0  0  0  0  0  0  0  0  0  0  0
   53.9101   77.0857   29.9322 H   0  0  0  0  0  0  0  0  0  0  0  0
   53.2371   77.2422   24.9309 H   0  0  0  0  0  0  0  0  0  0  0  0
   52.7138   82.3546   23.7305 H   0  0  0  0  0  0  0  0  0  0  0  0
   53.8054   81.6269   22.5036 H   0  0  0  0  0  0  0  0  0  0  0  0
   52.0560   81.2194   22.5036 H   0  0  0  0  0  0  0  0  0  0  0  0
   53.6415   82.4615   25.2717 H   0  0  0  0  0  0  0  0  0  0  0  0
   55.8530   82.0163   27.1171 H   0  0  0  0  0  0  0  0  0  0  0  0
   56.1063   81.1485   25.5648 H   0  0  0  0  0  0  0  0  0  0  0  0
   55.8024   82.9189   25.5648 H   0  0  0  0  0  0  0  0  0  0  0  0
   54.0102   81.7239   28.1187 H   0  0  0  0  0  0  0  0  0  0  0  0
   53.0232   83.0078   27.3416 H   0  0  0  0  0  0  0  0  0  0  0  0
   52.4453   81.3071   27.3416 H   0  0  0  0  0  0  0  0  0  0  0  0
   57.4360   79.1648   31.2585 H   0  0  0  0  0  0  0  0  0  0  0  0
  1  2  2  0
  2  3  1  0
  2  4  1  0
  4  5  1  0
  5  6  1  0
  6  7  1  0
  7  8  1  0
  8  9  2  0
  8 10  1  0
 10 11  1  0
 11 12  2  0
 12 13  1  0
 13 14  1  0
 14 15  1  0
 15 16  2  0
 16 17  1  0
 17 18  2  0
 18 19  1  0
 18 20  1  0
 20 21  1  0
 21 22  2  0
 22 23  1  0
 23 24  2  0
 24 25  1  0
 24 26  1  0
 26 27  1  0
 27 28  1  0
 27 29  1  0
 20 30  2  0
 13 31  2  0
 31 32  1  0
 32 33  1  0
 32 10  2  0
 30 15  1  0
 26 21  1  0
  1 34  1  0
  1 35  1  0
  3 36  1  0
  3 37  1  0
  3 38  1  0
  4 39  1  0
  5 40  1  0
  5 41  1  0
  6 42  1  0
  6 43  1  0
  7 44  1  0
 11 45  1  0
 12 46  1  0
 14 47  1  0
 17 48  1  0
 22 49  1  0
 25 50  1  0
 25 51  1  0
 25 52  1  0
 27 53  1  0
 28 54  1  0
 28 55  1  0
 28 56  1  0
 29 57  1  0
 29 58  1  0
 29 59  1  0
 31 60  1  0
M  END
>  <meeko>  (1) 
{"is_sidechain": false}

>  <smiles>  (1) 
C=C(C)NCCNC(=O)c1ccc(Nc2ncc(F)c(-c3cnc(C)n3C(C)C)n2)cc1F

>  <vina_score>  (1) 
-8.638

>  <job_id>  (1) 
8a70d352f35fff25

$$$$
