
     RDKit          3D

 48 50  0  0  0  0  0  0  0  0999 V2000
   58.6410   79.8800   28.6880 C   0  0  0  0  0  0  0  0  0  0  0  0
   57.6960   79.5070   29.5660 C   0  0  0  0  0  0  0  0  0  0  0  0
   57.8080   79.8310   31.0300 C   0  0  0  0  0  0  0  0  0  0  0  0
   56.5090   78.7390   29.1220 C   0  0  0  0  0  0  0  0  0  0  0  0
   56.0720   77.6180   29.8380 C   0  0  0  0  0  0  0  0  0  0  0  0
   54.9590   76.8690   29.4330 C   0  0  0  0  0  0  0  0  0  0  0  0
   54.2860   77.2660   28.2700 C   0  0  0  0  0  0  0  0  0  0  0  0
   54.6950   78.3690   27.5190 C   0  0  0  0  0  0  0  0  0  0  0  0
   55.8180   79.1090   27.9560 C   0  0  0  0  0  0  0  0  0  0  0  0
   53.8050   78.4880   26.4020 C   0  0  0  0  0  0  0  0  0  0  0  0
   53.8800   79.5110   25.3110 C   0  0  0  0  0  0  0  0  0  0  0  0
   53.0840   80.7780   25.6170 C   0  0  0  0  0  0  0  0  0  0  0  0
   51.8680   80.8480   25.4150 O   0  0  0  0  0  0  0  0  0  0  0  0
   53.7910   81.8870   26.0900 N   0  0  0  0  0  0  0  0  0  0  0  0
   53.1970   83.1440   26.5310 C   0  0  0  0  0  0  0  0  0  0  0  0
   53.6900   84.3630   25.7560 C   0  0  0  0  0  0  0  0  0  0  0  0
   55.0610   84.8610   26.2020 C   0  0  0  0  0  0  0  0  0  0  0  0
   55.5890   84.0290   27.2720 N   0  0  0  0  0  0  0  0  0  0  0  0
   56.0330   82.6840   26.8700 C   0  0  0  0  0  0  0  0  0  0  0  0
   55.2190   81.9380   25.7930 C   0  0  0  0  0  0  0  0  0  0  0  0
   52.8870   77.4600   26.5110 C   0  0  0  0  0  0  0  0  0  0  0  0
   53.1770   76.7430   27.6410 N   0  0  0  0  0  0  0  0  0  0  0  0
   52.4220   75.6010   28.1070 C   0  0  0  0  0  0  0  0  0  0  0  0
   58.5319   79.6287   27.6227 H   0  0  0  0  0  0  0  0  0  0  0  0
   59.5243   80.4368   29.0341 H   0  0  0  0  0  0  0  0  0  0  0  0
   57.5054   78.9556   31.6235 H   0  0  0  0  0  0  0  0  0  0  0  0
   58.8491   80.0938   31.2688 H   0  0  0  0  0  0  0  0  0  0  0  0
   57.1514   80.6806   31.2688 H   0  0  0  0  0  0  0  0  0  0  0  0
   56.6178   77.3166   30.7442 H   0  0  0  0  0  0  0  0  0  0  0  0
   54.6236   75.9953   30.0110 H   0  0  0  0  0  0  0  0  0  0  0  0
   56.1537   79.9824   27.3777 H   0  0  0  0  0  0  0  0  0  0  0  0
   54.9343   79.7878   25.1635 H   0  0  0  0  0  0  0  0  0  0  0  0
   53.4407   79.0594   24.4093 H   0  0  0  0  0  0  0  0  0  0  0  0
   52.1060   83.0736   26.4095 H   0  0  0  0  0  0  0  0  0  0  0  0
   53.4950   83.2889   27.5799 H   0  0  0  0  0  0  0  0  0  0  0  0
   53.7472   84.0969   24.6902 H   0  0  0  0  0  0  0  0  0  0  0  0
   52.9748   85.1764   25.9482 H   0  0  0  0  0  0  0  0  0  0  0  0
   55.7519   84.8301   25.3466 H   0  0  0  0  0  0  0  0  0  0  0  0
   54.9585   85.8912   26.5738 H   0  0  0  0  0  0  0  0  0  0  0  0
   54.9030   83.9290   28.0210 H   0  0  0  0  0  0  0  0  0  0  0  0
   57.0619   82.7796   26.4929 H   0  0  0  0  0  0  0  0  0  0  0  0
   55.9078   82.0739   27.7767 H   0  0  0  0  0  0  0  0  0  0  0  0
   55.3585   82.4513   24.8302 H   0  0  0  0  0  0  0  0  0  0  0  0
   55.5858   80.9014   25.7630 H   0  0  0  0  0  0  0  0  0  0  0  0
   52.0647   77.2535   25.8102 H   0  0  0  0  0  0  0  0  0  0  0  0
   52.4149   75.5902   29.2069 H   0  0  0  0  0  0  0  0  0  0  0  0
   51.3892   75.6674   27.7343 H   0  0  0  0  0  0  0  0  0  0  0  0
   52.8876   74.6767   27.7343 H   0  0  0  0  0  0  0  0  0  0  0  0
  1  2  2  0
  2  3  1  0
  2  4  1  0
  4  5  2  0
  5  6  1  0
  6  7  2  0
  7  8  1  0
  8  9  2  0
  8 10  1  0
 10 11  1  0
 11 12  1  0
 12 13  2  0
 12 14  1  0
 14 15  1  0
 15 16  1  0
 16 17  1  0
 17 18  1  0
 18 19  1  0
 19 20  1  0
 10 21  2  0
 21 22  1  0
 22 23  1  0
  9  4  1  0
 20 14  1  0
 22  7  1  0
  1 24  1  0
  1 25  1  0
  3 26  1  0
  3 27  1  0
  3 28  1  0
  5 29  1  0
  6 30  1  0
  9 31  1  0
 11 32  1  0
 11 33  1  0
 15 34  1  0
 15 35  1  0
 16 36  1  0
 16 37  1  0
 17 38  1  0
 17 39  1  0
 18 40  1  0
 19 41  1  0
 19 42  1  0
 20 43  1  0
 20 44  1  0
 21 45  1  0
 23 46  1  0
 23 47  1  0
 23 48  1  0
M  END
>  <meeko>  (1) 
{"is_sidechain": false}

>  <smiles>  (1) 
C=C(C)c1ccc2c(c1)c(CC(=O)N1CCCNCC1)cn2C

>  <vina_score>  (1) 
-6.636

>  <job_id>  (1) 
8a8412af6bcdae69

$$$$
