
     RDKit          3D

 60 63  0  0  0  0  0  0  0  0999 V2000
   61.6320   81.8910   35.2120 C   0  0  0  0  0  0  0  0  0  0  0  0
   60.7250   82.1910   34.0460 C   0  0  0  0  0  0  0  0  0  0  0  0
   60.0600   83.2210   34.0200 O   0  0  0  0  0  0  0  0  0  0  0  0
   60.7830   81.2100   33.0720 N   0  0  0  0  0  0  0  0  0  0  0  0
   60.0730   81.1650   31.8550 C   0  0  0  0  0  0  0  0  0  0  0  0
   59.0140   80.2520   31.7670 C   0  0  0  0  0  0  0  0  0  0  0  0
   58.2580   80.1450   30.5950 C   0  0  0  0  0  0  0  0  0  0  0  0
   58.5470   80.9490   29.4860 C   0  0  0  0  0  0  0  0  0  0  0  0
   57.7200   80.8440   28.2290 C   0  0  0  0  0  0  0  0  0  0  0  0
   57.1590   79.5180   28.1310 N   0  0  0  0  0  0  0  0  0  0  0  0
   55.8800   79.3070   27.6610 C   0  0  0  0  0  0  0  0  0  0  0  0
   55.2310   80.1430   26.9060 N   0  0  0  0  0  0  0  0  0  0  0  0
   53.9470   79.8320   26.4820 C   0  0  0  0  0  0  0  0  0  0  0  0
   53.3140   80.7550   25.6820 N   0  0  0  0  0  0  0  0  0  0  0  0
   52.8270   82.0320   26.1900 C   0  0  0  0  0  0  0  0  0  0  0  0
   52.9970   82.9920   25.0190 C   0  0  0  0  0  0  0  0  0  0  0  0
   52.7560   82.0980   23.8160 C   0  0  0  0  0  0  0  0  0  0  0  0
   53.4420   80.7840   24.2210 C   0  0  2  0  0  0  0  0  0  0  0  0
   52.7830   79.5820   23.5300 C   0  0  0  0  0  0  0  0  0  0  0  0
   51.4420   79.8880   23.1440 O   0  0  0  0  0  0  0  0  0  0  0  0
   53.3260   78.7230   26.8070 N   0  0  0  0  0  0  0  0  0  0  0  0
   53.9760   77.8410   27.6040 C   0  0  0  0  0  0  0  0  0  0  0  0
   53.6560   76.6160   28.1570 C   0  0  0  0  0  0  0  0  0  0  0  0
   52.3770   75.8520   28.0030 C   0  0  0  0  0  0  0  0  0  0  0  0
   52.1850   75.3570   26.5680 C   0  0  0  0  0  0  0  0  0  0  0  0
   51.1690   76.6750   28.4540 C   0  0  0  0  0  0  0  0  0  0  0  0
   54.8150   76.2630   28.9040 C   0  0  0  0  0  0  0  0  0  0  0  0
   55.7860   77.1810   28.8360 N   0  0  0  0  0  0  0  0  0  0  0  0
   55.2420   78.1170   28.0260 N   0  0  0  0  0  0  0  0  0  0  0  0
   59.6000   81.8670   29.5790 C   0  0  0  0  0  0  0  0  0  0  0  0
   60.3570   81.9710   30.7530 C   0  0  0  0  0  0  0  0  0  0  0  0
   61.0910   82.0699   36.1529 H   0  0  0  0  0  0  0  0  0  0  0  0
   61.9514   80.8394   35.1670 H   0  0  0  0  0  0  0  0  0  0  0  0
   62.5155   82.5448   35.1670 H   0  0  0  0  0  0  0  0  0  0  0  0
   61.4150   80.4380   33.2420 H   0  0  0  0  0  0  0  0  0  0  0  0
   58.7744   79.6122   32.6291 H   0  0  0  0  0  0  0  0  0  0  0  0
   57.4295   79.4231   30.5443 H   0  0  0  0  0  0  0  0  0  0  0  0
   56.9072   81.5844   28.2621 H   0  0  0  0  0  0  0  0  0  0  0  0
   58.3575   81.0378   27.3537 H   0  0  0  0  0  0  0  0  0  0  0  0
   57.4410   78.8680   28.8650 H   0  0  0  0  0  0  0  0  0  0  0  0
   51.7692   81.9573   26.4823 H   0  0  0  0  0  0  0  0  0  0  0  0
   53.3709   82.3626   27.0871 H   0  0  0  0  0  0  0  0  0  0  0  0
   52.2581   83.8057   25.0628 H   0  0  0  0  0  0  0  0  0  0  0  0
   53.9773   83.4907   25.0025 H   0  0  0  0  0  0  0  0  0  0  0  0
   51.6800   81.9462   23.6451 H   0  0  0  0  0  0  0  0  0  0  0  0
   53.1448   82.5193   22.8772 H   0  0  0  0  0  0  0  0  0  0  0  0
   54.4961   80.7267   23.9120 H   0  0  0  0  0  0  0  0  0  0  0  0
   53.3644   79.3183   22.6342 H   0  0  0  0  0  0  0  0  0  0  0  0
   52.7617   78.7389   24.2362 H   0  0  0  0  0  0  0  0  0  0  0  0
   51.4380   79.9430   22.1720 H   0  0  0  0  0  0  0  0  0  0  0  0
   52.4513   74.9721   28.6590 H   0  0  0  0  0  0  0  0  0  0  0  0
   51.7873   74.3316   26.5840 H   0  0  0  0  0  0  0  0  0  0  0  0
   51.4775   76.0166   26.0442 H   0  0  0  0  0  0  0  0  0  0  0  0
   53.1522   75.3670   26.0442 H   0  0  0  0  0  0  0  0  0  0  0  0
   51.1321   76.7001   29.5531 H   0  0  0  0  0  0  0  0  0  0  0  0
   51.2588   77.7006   28.0666 H   0  0  0  0  0  0  0  0  0  0  0  0
   50.2474   76.2161   28.0666 H   0  0  0  0  0  0  0  0  0  0  0  0
   54.9035   75.3296   29.4792 H   0  0  0  0  0  0  0  0  0  0  0  0
   59.8354   82.5136   28.7208 H   0  0  0  0  0  0  0  0  0  0  0  0
   61.1832   82.6952   30.8062 H   0  0  0  0  0  0  0  0  0  0  0  0
  1  2  1  0
  2  3  2  0
  2  4  1  0
  4  5  1  0
  5  6  1  0
  6  7  2  0
  7  8  1  0
  8  9  1  0
  9 10  1  0
 10 11  1  0
 11 12  2  0
 12 13  1  0
 13 14  1  0
 14 15  1  0
 15 16  1  0
 16 17  1  0
 17 18  1  0
 18 19  1  0
 19 20  1  0
 13 21  2  0
 21 22  1  0
 22 23  2  0
 23 24  1  0
 24 25  1  0
 24 26  1  0
 23 27  1  0
 27 28  2  0
 28 29  1  0
  8 30  2  0
 30 31  1  0
 31  5  2  0
 29 11  1  0
 18 14  1  0
 29 22  1  0
  1 32  1  0
  1 33  1  0
  1 34  1  0
  4 35  1  0
  6 36  1  0
  7 37  1  0
  9 38  1  0
  9 39  1  0
 10 40  1  0
 15 41  1  0
 15 42  1  0
 16 43  1  0
 16 44  1  0
 17 45  1  0
 17 46  1  0
 18 47  1  1
 19 48  1  0
 19 49  1  0
 20 50  1  0
 24 51  1  0
 25 52  1  0
 25 53  1  0
 25 54  1  0
 26 55  1  0
 26 56  1  0
 26 57  1  0
 27 58  1  0
 30 59  1  0
 31 60  1  0
M  END
>  <meeko>  (1) 
{"is_sidechain": false}

>  <smiles>  (1) 
CC(=O)Nc1ccc(CNc2nc(N3CCC[C@@H]3CO)nc3c(C(C)C)cnn23)cc1

>  <vina_score>  (1) 
-8.713

>  <job_id>  (1) 
8ac0e571a2da8c67

$$$$
