
     RDKit          3D

 49 51  0  0  0  0  0  0  0  0999 V2000
   52.9350   80.8590   23.1470 C   0  0  0  0  0  0  0  0  0  0  0  0
   53.0610   81.4980   24.5040 C   0  0  0  0  0  0  0  0  0  0  0  0
   52.8860   82.8880   24.6130 C   0  0  0  0  0  0  0  0  0  0  0  0
   52.9990   83.5330   25.8430 C   0  0  0  0  0  0  0  0  0  0  0  0
   53.2930   82.7980   26.9850 C   0  0  0  0  0  0  0  0  0  0  0  0
   53.4700   81.4190   26.8950 C   0  0  0  0  0  0  0  0  0  0  0  0
   53.3540   80.7480   25.6620 C   0  0  0  0  0  0  0  0  0  0  0  0
   53.5360   79.2420   25.6460 C   0  0  0  0  0  0  0  0  0  0  0  0
   52.9390   78.5280   26.8700 C   0  0  0  0  0  0  0  0  0  0  0  0
   53.9840   77.9380   27.7880 C   0  0  0  0  0  0  0  0  0  0  0  0
   55.1260   78.6920   28.1170 C   0  0  0  0  0  0  0  0  0  0  0  0
   56.1210   78.2280   28.9960 C   0  0  0  0  0  0  0  0  0  0  0  0
   57.2170   79.0050   29.3260 N   0  0  0  0  0  0  0  0  0  0  0  0
   57.4380   79.5080   30.6890 C   0  0  0  0  0  0  0  0  0  0  0  0
   58.9280   79.8580   30.9160 C   0  0  0  0  0  0  0  0  0  0  0  0
   59.5120   80.8290   29.9650 N   0  0  0  0  0  0  0  0  0  0  0  0
   59.5760   82.1730   30.5300 C   0  0  0  0  0  0  0  0  0  0  0  0
   58.7700   80.8380   28.6850 C   0  0  0  0  0  0  0  0  0  0  0  0
   58.1590   79.4750   28.2920 C   0  0  0  0  0  0  0  0  0  0  0  0
   55.9350   76.9400   29.5180 C   0  0  0  0  0  0  0  0  0  0  0  0
   54.8090   76.1670   29.2080 C   0  0  0  0  0  0  0  0  0  0  0  0
   53.8370   76.6740   28.3530 C   0  0  0  0  0  0  0  0  0  0  0  0
   52.7220   75.9410   28.0660 O   0  0  0  0  0  0  0  0  0  0  0  0
   52.7234   79.7860   23.2652 H   0  0  0  0  0  0  0  0  0  0  0  0
   52.1136   81.3358   22.5921 H   0  0  0  0  0  0  0  0  0  0  0  0
   53.8759   80.9882   22.5921 H   0  0  0  0  0  0  0  0  0  0  0  0
   52.6560   83.4766   23.7126 H   0  0  0  0  0  0  0  0  0  0  0  0
   52.8558   84.6216   25.9098 H   0  0  0  0  0  0  0  0  0  0  0  0
   53.3857   83.3036   27.9575 H   0  0  0  0  0  0  0  0  0  0  0  0
   53.7045   80.8440   27.8030 H   0  0  0  0  0  0  0  0  0  0  0  0
   53.0507   78.8443   24.7425 H   0  0  0  0  0  0  0  0  0  0  0  0
   54.6193   79.0516   25.6629 H   0  0  0  0  0  0  0  0  0  0  0  0
   52.3429   79.2547   27.4414 H   0  0  0  0  0  0  0  0  0  0  0  0
   52.3282   77.6940   26.4941 H   0  0  0  0  0  0  0  0  0  0  0  0
   55.2456   79.6884   27.6666 H   0  0  0  0  0  0  0  0  0  0  0  0
   56.8289   80.4111   30.8423 H   0  0  0  0  0  0  0  0  0  0  0  0
   57.1496   78.7229   31.4034 H   0  0  0  0  0  0  0  0  0  0  0  0
   59.0262   80.2762   31.9287 H   0  0  0  0  0  0  0  0  0  0  0  0
   59.4823   78.9200   30.7643 H   0  0  0  0  0  0  0  0  0  0  0  0
   59.5730   82.1096   31.6282 H   0  0  0  0  0  0  0  0  0  0  0  0
   60.4988   82.6685   30.1939 H   0  0  0  0  0  0  0  0  0  0  0  0
   58.7045   82.7539   30.1939 H   0  0  0  0  0  0  0  0  0  0  0  0
   57.9534   81.5706   28.7659 H   0  0  0  0  0  0  0  0  0  0  0  0
   59.4988   81.0929   27.9015 H   0  0  0  0  0  0  0  0  0  0  0  0
   57.6228   79.5820   27.3375 H   0  0  0  0  0  0  0  0  0  0  0  0
   58.9712   78.7396   28.1947 H   0  0  0  0  0  0  0  0  0  0  0  0
   56.6977   76.5235   30.1924 H   0  0  0  0  0  0  0  0  0  0  0  0
   54.6940   75.1618   29.6397 H   0  0  0  0  0  0  0  0  0  0  0  0
   52.2550   76.3660   27.3270 H   0  0  0  0  0  0  0  0  0  0  0  0
  1  2  1  0
  2  3  2  0
  3  4  1  0
  4  5  2  0
  5  6  1  0
  6  7  2  0
  7  8  1  0
  8  9  1  0
  9 10  1  0
 10 11  1  0
 11 12  2  0
 12 13  1  0
 13 14  1  0
 14 15  1  0
 15 16  1  0
 16 17  1  0
 16 18  1  0
 18 19  1  0
 12 20  1  0
 20 21  2  0
 21 22  1  0
 22 23  1  0
  7  2  1  0
 22 10  2  0
 19 13  1  0
  1 24  1  0
  1 25  1  0
  1 26  1  0
  3 27  1  0
  4 28  1  0
  5 29  1  0
  6 30  1  0
  8 31  1  0
  8 32  1  0
  9 33  1  0
  9 34  1  0
 11 35  1  0
 14 36  1  0
 14 37  1  0
 15 38  1  0
 15 39  1  0
 17 40  1  0
 17 41  1  0
 17 42  1  0
 18 43  1  0
 18 44  1  0
 19 45  1  0
 19 46  1  0
 20 47  1  0
 21 48  1  0
 23 49  1  0
M  END
>  <meeko>  (1) 
{"is_sidechain": false}

>  <smiles>  (1) 
Cc1ccccc1CCc1cc(N2CCN(C)CC2)ccc1O

>  <vina_score>  (1) 
-8.656

>  <job_id>  (1) 
8ada0a9eeebfdb5c

$$$$
