
     RDKit          3D

 38 39  0  0  0  0  0  0  0  0999 V2000
   59.5360   83.0410   32.4190 C   0  0  0  0  0  0  0  0  0  0  0  0
   59.1720   81.5460   32.3910 C   0  0  0  0  0  0  0  0  0  0  0  0
   57.8100   81.3570   33.0840 C   0  0  0  0  0  0  0  0  0  0  0  0
   60.2340   80.7470   33.1690 C   0  0  0  0  0  0  0  0  0  0  0  0
   59.1200   81.0640   30.9700 C   0  0  0  0  0  0  0  0  0  0  0  0
   59.7800   81.3720   29.8000 C   0  0  0  0  0  0  0  0  0  0  0  0
   59.3100   80.6000   28.7700 N   0  0  0  0  0  0  0  0  0  0  0  0
   58.3780   79.8570   29.3350 C   0  0  0  0  0  0  0  0  0  0  0  0
   57.5050   78.8240   28.7180 C   0  0  0  0  0  0  0  0  0  0  0  0
   56.3710   79.4180   27.9090 C   0  0  0  0  0  0  0  0  0  0  0  0
   55.0790   78.8780   28.0010 C   0  0  0  0  0  0  0  0  0  0  0  0
   54.0330   79.4080   27.2420 C   0  0  0  0  0  0  0  0  0  0  0  0
   54.2800   80.4860   26.3900 C   0  0  0  0  0  0  0  0  0  0  0  0
   52.9670   81.1370   25.4010 S   0  0  0  0  0  0  0  0  0  0  0  0
   53.6020   81.0090   23.8530 N   0  0  0  0  0  0  0  0  0  0  0  0
   52.8310   82.5520   25.6570 O   0  0  0  0  0  0  0  0  0  0  0  0
   51.8420   80.2320   25.4430 O   0  0  0  0  0  0  0  0  0  0  0  0
   55.5650   81.0210   26.2700 C   0  0  0  0  0  0  0  0  0  0  0  0
   56.6070   80.4860   27.0300 C   0  0  0  0  0  0  0  0  0  0  0  0
   58.2170   80.0770   30.6760 O   0  0  0  0  0  0  0  0  0  0  0  0
   59.6183   83.3789   33.4626 H   0  0  0  0  0  0  0  0  0  0  0  0
   60.4976   83.1939   31.9072 H   0  0  0  0  0  0  0  0  0  0  0  0
   58.7523   83.6188   31.9072 H   0  0  0  0  0  0  0  0  0  0  0  0
   57.9480   81.3762   34.1751 H   0  0  0  0  0  0  0  0  0  0  0  0
   57.1311   82.1695   32.7860 H   0  0  0  0  0  0  0  0  0  0  0  0
   57.3780   80.3903   32.7860 H   0  0  0  0  0  0  0  0  0  0  0  0
   60.0682   80.8718   34.2492 H   0  0  0  0  0  0  0  0  0  0  0  0
   60.1562   79.6816   32.9067 H   0  0  0  0  0  0  0  0  0  0  0  0
   61.2362   81.1170   32.9067 H   0  0  0  0  0  0  0  0  0  0  0  0
   60.5717   82.1299   29.7063 H   0  0  0  0  0  0  0  0  0  0  0  0
   58.1184   78.1966   28.0546 H   0  0  0  0  0  0  0  0  0  0  0  0
   57.0569   78.2394   29.5350 H   0  0  0  0  0  0  0  0  0  0  0  0
   54.8885   78.0307   28.6761 H   0  0  0  0  0  0  0  0  0  0  0  0
   53.0226   78.9794   27.3150 H   0  0  0  0  0  0  0  0  0  0  0  0
   53.6020   81.9250   23.4040 H   0  0  0  0  0  0  0  0  0  0  0  0
   54.5220   80.5690   23.8930 H   0  0  0  0  0  0  0  0  0  0  0  0
   55.7545   81.8578   25.5816 H   0  0  0  0  0  0  0  0  0  0  0  0
   57.6201   80.9047   26.9390 H   0  0  0  0  0  0  0  0  0  0  0  0
  1  2  1  0
  2  3  1  0
  2  4  1  0
  2  5  1  0
  5  6  2  0
  6  7  1  0
  7  8  2  0
  8  9  1  0
  9 10  1  0
 10 11  1  0
 11 12  2  0
 12 13  1  0
 13 14  1  0
 14 15  1  0
 14 16  2  0
 14 17  2  0
 13 18  2  0
 18 19  1  0
  8 20  1  0
 20  5  1  0
 19 10  2  0
  1 21  1  0
  1 22  1  0
  1 23  1  0
  3 24  1  0
  3 25  1  0
  3 26  1  0
  4 27  1  0
  4 28  1  0
  4 29  1  0
  6 30  1  0
  9 31  1  0
  9 32  1  0
 11 33  1  0
 12 34  1  0
 15 35  1  0
 15 36  1  0
 18 37  1  0
 19 38  1  0
M  END
>  <meeko>  (1) 
{"is_sidechain": false}

>  <smiles>  (1) 
CC(C)(C)c1cnc(Cc2ccc(S(N)(=O)=O)cc2)o1

>  <vina_score>  (1) 
-7.540

>  <job_id>  (1) 
8ae8587ed24ea125

$$$$
