
     RDKit          3D

 58 60  0  0  0  0  0  0  0  0999 V2000
   66.3700   83.5660   30.6400 C   0  0  0  0  0  0  0  0  0  0  0  0
   65.0190   83.6180   30.0720 N   0  0  0  0  0  0  0  0  0  0  0  0
   64.7900   84.9340   29.4680 C   0  0  0  0  0  0  0  0  0  0  0  0
   64.0200   83.3230   31.1280 C   0  0  0  0  0  0  0  0  0  0  0  0
   63.5390   81.8580   31.0980 C   0  0  0  0  0  0  0  0  0  0  0  0
   62.2130   81.7890   30.4560 N   0  0  0  0  0  0  0  0  0  0  0  0
   60.8930   82.4260   31.2700 S   0  0  0  0  0  0  0  0  0  0  0  0
   60.6600   83.7720   30.7970 O   0  0  0  0  0  0  0  0  0  0  0  0
   61.0840   82.1340   32.6740 O   0  0  0  0  0  0  0  0  0  0  0  0
   59.5810   81.3810   30.6890 C   0  0  0  0  0  0  0  0  0  0  0  0
   58.7890   80.6800   31.5960 C   0  0  0  0  0  0  0  0  0  0  0  0
   57.7680   79.8530   31.1200 C   0  0  0  0  0  0  0  0  0  0  0  0
   57.5230   79.6990   29.7400 C   0  0  0  0  0  0  0  0  0  0  0  0
   56.4380   78.8150   29.2650 C   0  0  0  0  0  0  0  0  0  0  0  0
   56.3120   77.4880   29.6650 C   0  0  0  0  0  0  0  0  0  0  0  0
   55.2590   76.7290   29.1670 C   0  0  0  0  0  0  0  0  0  0  0  0
   54.3560   77.3110   28.2840 C   0  0  0  0  0  0  0  0  0  0  0  0
   54.5350   78.6370   27.9290 C   0  0  0  0  0  0  0  0  0  0  0  0
   53.6980   79.3310   27.0590 N   0  0  0  0  0  0  0  0  0  0  0  0
   53.6950   79.3440   25.6830 C   0  0  0  0  0  0  0  0  0  0  0  0
   54.4480   78.7110   24.9500 O   0  0  0  0  0  0  0  0  0  0  0  0
   52.5600   80.2340   25.1300 C   0  0  0  0  0  0  0  0  0  0  0  0
   52.6170   80.3530   23.6000 C   0  0  0  0  0  0  0  0  0  0  0  0
   51.9310   81.6260   23.1290 C   0  0  0  0  0  0  0  0  0  0  0  0
   52.5550   82.8560   23.7860 C   0  0  0  0  0  0  0  0  0  0  0  0
   53.2440   82.5200   25.1040 C   0  0  0  0  0  0  0  0  0  0  0  0
   52.5180   81.5070   25.7960 O   0  0  0  0  0  0  0  0  0  0  0  0
   55.5510   79.3870   28.4090 N   0  0  0  0  0  0  0  0  0  0  0  0
   58.3440   80.4200   28.8500 C   0  0  0  0  0  0  0  0  0  0  0  0
   59.3680   81.2510   29.3160 C   0  0  0  0  0  0  0  0  0  0  0  0
   66.3064   83.5684   31.7382 H   0  0  0  0  0  0  0  0  0  0  0  0
   66.8740   82.6478   30.3039 H   0  0  0  0  0  0  0  0  0  0  0  0
   66.9430   84.4428   30.3039 H   0  0  0  0  0  0  0  0  0  0  0  0
   64.6595   85.6841   30.2619 H   0  0  0  0  0  0  0  0  0  0  0  0
   65.6542   85.2066   28.8444 H   0  0  0  0  0  0  0  0  0  0  0  0
   63.8845   84.8987   28.8444 H   0  0  0  0  0  0  0  0  0  0  0  0
   64.4748   83.5243   32.1091 H   0  0  0  0  0  0  0  0  0  0  0  0
   63.1449   83.9644   30.9467 H   0  0  0  0  0  0  0  0  0  0  0  0
   64.2550   81.2486   30.5270 H   0  0  0  0  0  0  0  0  0  0  0  0
   63.4689   81.4739   32.1264 H   0  0  0  0  0  0  0  0  0  0  0  0
   62.0060   80.8700   30.0520 H   0  0  0  0  0  0  0  0  0  0  0  0
   58.9659   80.7767   32.6774 H   0  0  0  0  0  0  0  0  0  0  0  0
   57.1396   79.3084   31.8401 H   0  0  0  0  0  0  0  0  0  0  0  0
   57.0356   77.0457   30.3656 H   0  0  0  0  0  0  0  0  0  0  0  0
   55.1412   75.6777   29.4687 H   0  0  0  0  0  0  0  0  0  0  0  0
   53.5163   76.7294   27.8758 H   0  0  0  0  0  0  0  0  0  0  0  0
   53.0480   79.9540   27.5270 H   0  0  0  0  0  0  0  0  0  0  0  0
   51.6051   79.7364   25.3549 H   0  0  0  0  0  0  0  0  0  0  0  0
   53.6690   80.3708   23.2790 H   0  0  0  0  0  0  0  0  0  0  0  0
   52.0960   79.4896   23.1606 H   0  0  0  0  0  0  0  0  0  0  0  0
   52.0356   81.7087   22.0371 H   0  0  0  0  0  0  0  0  0  0  0  0
   50.8687   81.5778   23.4104 H   0  0  0  0  0  0  0  0  0  0  0  0
   53.2977   83.2863   23.0980 H   0  0  0  0  0  0  0  0  0  0  0  0
   51.7462   83.5699   24.0010 H   0  0  0  0  0  0  0  0  0  0  0  0
   54.2634   82.1608   24.8996 H   0  0  0  0  0  0  0  0  0  0  0  0
   53.2821   83.4242   25.7293 H   0  0  0  0  0  0  0  0  0  0  0  0
   58.1761   80.3274   27.7668 H   0  0  0  0  0  0  0  0  0  0  0  0
   60.0022   81.7993   28.6038 H   0  0  0  0  0  0  0  0  0  0  0  0
  1  2  1  0
  2  3  1  0
  2  4  1  0
  4  5  1  0
  5  6  1  0
  6  7  1  0
  7  8  2  0
  7  9  2  0
  7 10  1  0
 10 11  1  0
 11 12  2  0
 12 13  1  0
 13 14  1  0
 14 15  1  0
 15 16  2  0
 16 17  1  0
 17 18  2  0
 18 19  1  0
 19 20  1  0
 20 21  2  0
 20 22  1  0
 22 23  1  0
 23 24  1  0
 24 25  1  0
 25 26  1  0
 26 27  1  0
 18 28  1  0
 13 29  2  0
 29 30  1  0
 30 10  2  0
 28 14  2  0
 27 22  1  0
  1 31  1  0
  1 32  1  0
  1 33  1  0
  3 34  1  0
  3 35  1  0
  3 36  1  0
  4 37  1  0
  4 38  1  0
  5 39  1  0
  5 40  1  0
  6 41  1  0
 11 42  1  0
 12 43  1  0
 15 44  1  0
 16 45  1  0
 17 46  1  0
 19 47  1  0
 22 48  1  0
 23 49  1  0
 23 50  1  0
 24 51  1  0
 24 52  1  0
 25 53  1  0
 25 54  1  0
 26 55  1  0
 26 56  1  0
 29 57  1  0
 30 58  1  0
M  END
>  <meeko>  (1) 
{"is_sidechain": false}

>  <smiles>  (1) 
CN(C)CCNS(=O)(=O)c1ccc(-c2cccc(NC(=O)C3CCCCO3)n2)cc1

>  <vina_score>  (1) 
-7.716

>  <job_id>  (1) 
8baa8a2862aa859e

$$$$
