
     RDKit          3D

 25 27  0  0  0  0  0  0  0  0999 V2000
   52.9350   83.6510   25.0200 N   0  0  0  0  0  0  0  0  0  0  0  0
   53.0730   82.3020   24.7780 C   0  0  0  0  0  0  0  0  0  0  0  0
   52.7770   81.8610   23.5560 N   0  0  0  0  0  0  0  0  0  0  0  0
   52.9090   80.5410   23.3500 C   0  0  0  0  0  0  0  0  0  0  0  0
   53.3100   79.6550   24.3220 C   0  0  0  0  0  0  0  0  0  0  0  0
   53.5770   80.2000   25.5640 C   0  0  0  0  0  0  0  0  0  0  0  0
   53.9940   79.3590   26.6540 N   0  0  0  0  0  0  0  0  0  0  0  0
   53.2370   78.3570   27.2410 C   0  0  0  0  0  0  0  0  0  0  0  0
   53.9530   77.7810   28.2630 C   0  0  0  0  0  0  0  0  0  0  0  0
   55.2070   78.4310   28.3250 C   0  0  0  0  0  0  0  0  0  0  0  0
   56.3290   78.2720   29.1490 C   0  0  0  0  0  0  0  0  0  0  0  0
   57.4040   79.1070   28.9050 C   0  0  0  0  0  0  0  0  0  0  0  0
   57.4350   80.0440   27.9390 N   0  0  0  0  0  0  0  0  0  0  0  0
   56.3560   80.2040   27.1350 C   0  0  0  0  0  0  0  0  0  0  0  0
   55.2250   79.4060   27.3190 C   0  0  0  0  0  0  0  0  0  0  0  0
   53.4510   81.5250   25.7950 N   0  0  0  0  0  0  0  0  0  0  0  0
   52.0010   83.8490   25.3500 H   0  0  0  0  0  0  0  0  0  0  0  0
   53.7070   83.9910   25.5750 H   0  0  0  0  0  0  0  0  0  0  0  0
   52.6839   80.1464   22.3482 H   0  0  0  0  0  0  0  0  0  0  0  0
   53.4121   78.5779   24.1234 H   0  0  0  0  0  0  0  0  0  0  0  0
   52.2205   78.0677   26.9360 H   0  0  0  0  0  0  0  0  0  0  0  0
   53.6122   76.9628   28.9145 H   0  0  0  0  0  0  0  0  0  0  0  0
   56.3536   77.5196   29.9510 H   0  0  0  0  0  0  0  0  0  0  0  0
   58.2934   78.9982   29.5431 H   0  0  0  0  0  0  0  0  0  0  0  0
   56.3711   80.9620   26.3380 H   0  0  0  0  0  0  0  0  0  0  0  0
  1  2  1  0
  2  3  2  0
  3  4  1  0
  4  5  2  0
  5  6  1  0
  6  7  1  0
  7  8  1  0
  8  9  2  0
  9 10  1  0
 10 11  2  0
 11 12  1  0
 12 13  2  0
 13 14  1  0
 14 15  2  0
  6 16  2  0
 16  2  1  0
 15  7  1  0
 15 10  1  0
  1 17  1  0
  1 18  1  0
  4 19  1  0
  5 20  1  0
  8 21  1  0
  9 22  1  0
 11 23  1  0
 12 24  1  0
 14 25  1  0
M  END
>  <meeko>  (1) 
{"is_sidechain": false}

>  <smiles>  (1) 
Nc1nccc(-n2ccc3ccncc32)n1

>  <vina_score>  (1) 
-7.050

>  <job_id>  (1) 
8bc480a191e7a3d3

$$$$
