
     RDKit          3D

 53 55  0  0  0  0  0  0  0  0999 V2000
   55.1830   76.4820   29.8340 C   0  0  0  0  0  0  0  0  0  0  0  0
   55.9680   77.6680   29.8220 O   0  0  0  0  0  0  0  0  0  0  0  0
   55.8550   78.4820   28.7180 C   0  0  0  0  0  0  0  0  0  0  0  0
   54.7220   78.5760   27.9000 C   0  0  0  0  0  0  0  0  0  0  0  0
   54.6790   79.4440   26.7930 C   0  0  0  0  0  0  0  0  0  0  0  0
   53.5050   79.4860   26.0190 N   0  0  0  0  0  0  0  0  0  0  0  0
   53.0060   78.1340   25.7210 C   0  0  0  0  0  0  0  0  0  0  0  0
   53.4470   80.4060   24.8540 C   0  0  0  0  0  0  0  0  0  0  0  0
   52.5950   81.6540   25.1510 C   0  0  0  0  0  0  0  0  0  0  0  0
   53.4110   82.8510   25.2870 N   0  0  0  0  0  0  0  0  0  0  0  0
   53.7850   83.3030   26.5300 C   0  0  0  0  0  0  0  0  0  0  0  0
   54.7970   84.4170   26.5000 C   0  0  0  0  0  0  0  0  0  0  0  0
   53.3520   82.8410   27.5820 O   0  0  0  0  0  0  0  0  0  0  0  0
   55.8100   80.2240   26.5360 C   0  0  0  0  0  0  0  0  0  0  0  0
   56.9490   80.1380   27.3450 C   0  0  0  0  0  0  0  0  0  0  0  0
   56.9930   79.2630   28.4320 C   0  0  0  0  0  0  0  0  0  0  0  0
   58.1270   79.1620   29.2710 N   0  0  0  0  0  0  0  0  0  0  0  0
   58.9180   80.1530   29.8850 C   0  0  0  0  0  0  0  0  0  0  0  0
   59.6810   81.0850   29.1700 C   0  0  0  0  0  0  0  0  0  0  0  0
   60.4280   82.0690   29.8260 C   0  0  0  0  0  0  0  0  0  0  0  0
   60.4130   82.1300   31.2170 C   0  0  0  0  0  0  0  0  0  0  0  0
   59.6550   81.2110   31.9470 C   0  0  0  0  0  0  0  0  0  0  0  0
   58.9120   80.2300   31.2860 C   0  0  0  0  0  0  0  0  0  0  0  0
   59.6840   81.3500   33.4350 C   0  0  0  0  0  0  0  0  0  0  0  0
   60.8030   82.7210   33.7020 S   0  0  0  0  0  0  0  0  0  0  0  0
   60.0600   83.8150   34.3000 O   0  0  0  0  0  0  0  0  0  0  0  0
   62.0130   82.2120   34.3260 O   0  0  0  0  0  0  0  0  0  0  0  0
   61.1750   83.1450   32.0040 C   0  0  0  0  0  0  0  0  0  0  0  0
   54.9855   76.1836   30.8741 H   0  0  0  0  0  0  0  0  0  0  0  0
   54.2293   76.6683   29.3186 H   0  0  0  0  0  0  0  0  0  0  0  0
   55.7272   75.6769   29.3186 H   0  0  0  0  0  0  0  0  0  0  0  0
   53.8431   77.9554   28.1287 H   0  0  0  0  0  0  0  0  0  0  0  0
   52.8090   77.6001   26.6624 H   0  0  0  0  0  0  0  0  0  0  0  0
   52.0754   78.2066   25.1389 H   0  0  0  0  0  0  0  0  0  0  0  0
   53.7606   77.5847   25.1389 H   0  0  0  0  0  0  0  0  0  0  0  0
   54.4690   80.7248   24.6011 H   0  0  0  0  0  0  0  0  0  0  0  0
   52.9816   79.8665   24.0159 H   0  0  0  0  0  0  0  0  0  0  0  0
   51.8822   81.8019   24.3264 H   0  0  0  0  0  0  0  0  0  0  0  0
   52.0717   81.4893   26.1044 H   0  0  0  0  0  0  0  0  0  0  0  0
   54.0610   83.0030   24.5240 H   0  0  0  0  0  0  0  0  0  0  0  0
   55.0574   84.7036   27.5296 H   0  0  0  0  0  0  0  0  0  0  0  0
   55.7013   84.0768   25.9742 H   0  0  0  0  0  0  0  0  0  0  0  0
   54.3718   85.2846   25.9742 H   0  0  0  0  0  0  0  0  0  0  0  0
   55.8049   80.9180   25.6826 H   0  0  0  0  0  0  0  0  0  0  0  0
   57.8219   80.7688   27.1211 H   0  0  0  0  0  0  0  0  0  0  0  0
   58.6650   78.3280   29.0320 H   0  0  0  0  0  0  0  0  0  0  0  0
   59.6930   81.0422   28.0709 H   0  0  0  0  0  0  0  0  0  0  0  0
   61.0235   82.7900   29.2467 H   0  0  0  0  0  0  0  0  0  0  0  0
   58.3170   79.5116   31.8689 H   0  0  0  0  0  0  0  0  0  0  0  0
   58.6823   81.5771   33.8287 H   0  0  0  0  0  0  0  0  0  0  0  0
   60.0030   80.4296   33.9461 H   0  0  0  0  0  0  0  0  0  0  0  0
   60.8322   84.1634   31.7688 H   0  0  0  0  0  0  0  0  0  0  0  0
   62.2531   83.1354   31.7860 H   0  0  0  0  0  0  0  0  0  0  0  0
  1  2  1  0
  2  3  1  0
  3  4  1  0
  4  5  2  0
  5  6  1  0
  6  7  1  0
  6  8  1  0
  8  9  1  0
  9 10  1  0
 10 11  1  0
 11 12  1  0
 11 13  2  0
  5 14  1  0
 14 15  2  0
 15 16  1  0
 16 17  1  0
 17 18  1  0
 18 19  1  0
 19 20  2  0
 20 21  1  0
 21 22  2  0
 22 23  1  0
 22 24  1  0
 24 25  1  0
 25 26  2  0
 25 27  2  0
 25 28  1  0
 16  3  2  0
 23 18  2  0
 28 21  1  0
  1 29  1  0
  1 30  1  0
  1 31  1  0
  4 32  1  0
  7 33  1  0
  7 34  1  0
  7 35  1  0
  8 36  1  0
  8 37  1  0
  9 38  1  0
  9 39  1  0
 10 40  1  0
 12 41  1  0
 12 42  1  0
 12 43  1  0
 14 44  1  0
 15 45  1  0
 17 46  1  0
 19 47  1  0
 20 48  1  0
 23 49  1  0
 24 50  1  0
 24 51  1  0
 28 52  1  0
 28 53  1  0
M  END
>  <meeko>  (1) 
{"is_sidechain": false}

>  <smiles>  (1) 
COc1cc(N(C)CCNC(C)=O)ccc1Nc1ccc2c(c1)CS(=O)(=O)C2

>  <vina_score>  (1) 
-7.992

>  <job_id>  (1) 
8bdbd754c61d9de5

$$$$
