
     RDKit          3D

 45 47  0  0  0  0  0  0  0  0999 V2000
   59.8760   81.7400   29.6030 C   0  0  0  0  0  0  0  0  0  0  0  0
   59.5380   80.4310   30.0400 O   0  0  0  0  0  0  0  0  0  0  0  0
   58.3730   79.9010   29.5590 C   0  0  0  0  0  0  0  0  0  0  0  0
   58.0970   80.2090   28.2250 C   0  0  0  0  0  0  0  0  0  0  0  0
   56.9380   79.7300   27.6070 C   0  0  0  0  0  0  0  0  0  0  0  0
   56.0230   78.9350   28.3110 C   0  0  0  0  0  0  0  0  0  0  0  0
   54.8390   78.4410   27.6980 N   0  0  0  0  0  0  0  0  0  0  0  0
   54.0510   77.6080   28.6160 C   0  0  0  0  0  0  0  0  0  0  0  0
   54.1460   79.0900   26.6480 C   0  0  0  0  0  0  0  0  0  0  0  0
   54.0240   78.5720   25.3550 C   0  0  0  0  0  0  0  0  0  0  0  0
   53.3310   79.2660   24.3470 C   0  0  0  0  0  0  0  0  0  0  0  0
   52.7290   80.5120   24.5700 C   0  0  0  0  0  0  0  0  0  0  0  0
   52.0570   81.1860   23.5640 N   0  0  0  0  0  0  0  0  0  0  0  0
   51.4350   80.4750   22.4360 C   0  0  0  0  0  0  0  0  0  0  0  0
   50.3500   81.3550   21.7740 C   0  0  0  0  0  0  0  0  0  0  0  0
   50.8100   82.6650   21.2700 N   0  0  0  0  0  0  0  0  0  0  0  0
   52.0450   83.0920   21.9500 C   0  0  0  0  0  0  0  0  0  0  0  0
   52.1850   82.6470   23.4240 C   0  0  0  0  0  0  0  0  0  0  0  0
   52.8730   81.0350   25.8600 C   0  0  0  0  0  0  0  0  0  0  0  0
   53.5610   80.3440   26.8710 C   0  0  0  0  0  0  0  0  0  0  0  0
   56.3130   78.6310   29.6490 C   0  0  0  0  0  0  0  0  0  0  0  0
   57.4760   79.1070   30.2700 C   0  0  0  0  0  0  0  0  0  0  0  0
   60.0430   82.3867   30.4770 H   0  0  0  0  0  0  0  0  0  0  0  0
   60.7930   81.6988   28.9968 H   0  0  0  0  0  0  0  0  0  0  0  0
   59.0537   82.1479   28.9968 H   0  0  0  0  0  0  0  0  0  0  0  0
   58.7989   80.8350   27.6546 H   0  0  0  0  0  0  0  0  0  0  0  0
   56.7415   79.9804   26.5541 H   0  0  0  0  0  0  0  0  0  0  0  0
   54.2997   77.8709   29.6548 H   0  0  0  0  0  0  0  0  0  0  0  0
   52.9791   77.7819   28.4404 H   0  0  0  0  0  0  0  0  0  0  0  0
   54.2840   76.5474   28.4404 H   0  0  0  0  0  0  0  0  0  0  0  0
   54.4807   77.5991   25.1207 H   0  0  0  0  0  0  0  0  0  0  0  0
   53.2588   78.8143   23.3466 H   0  0  0  0  0  0  0  0  0  0  0  0
   52.2073   80.2311   21.6916 H   0  0  0  0  0  0  0  0  0  0  0  0
   50.9659   79.5535   22.8112 H   0  0  0  0  0  0  0  0  0  0  0  0
   49.9308   80.7943   20.9255 H   0  0  0  0  0  0  0  0  0  0  0  0
   49.6189   81.5771   22.5653 H   0  0  0  0  0  0  0  0  0  0  0  0
   50.0740   83.3470   21.4460 H   0  0  0  0  0  0  0  0  0  0  0  0
   52.8985   82.6818   21.3903 H   0  0  0  0  0  0  0  0  0  0  0  0
   52.0125   84.1913   21.9697 H   0  0  0  0  0  0  0  0  0  0  0  0
   53.1721   82.9563   23.7980 H   0  0  0  0  0  0  0  0  0  0  0  0
   51.3791   83.1201   24.0042 H   0  0  0  0  0  0  0  0  0  0  0  0
   52.4340   82.0172   26.0892 H   0  0  0  0  0  0  0  0  0  0  0  0
   53.6432   80.8010   27.8682 H   0  0  0  0  0  0  0  0  0  0  0  0
   55.6132   78.0060   30.2231 H   0  0  0  0  0  0  0  0  0  0  0  0
   57.6807   78.8531   31.3205 H   0  0  0  0  0  0  0  0  0  0  0  0
  1  2  1  0
  2  3  1  0
  3  4  1  0
  4  5  2  0
  5  6  1  0
  6  7  1  0
  7  8  1  0
  7  9  1  0
  9 10  1  0
 10 11  2  0
 11 12  1  0
 12 13  1  0
 13 14  1  0
 14 15  1  0
 15 16  1  0
 16 17  1  0
 17 18  1  0
 12 19  2  0
 19 20  1  0
  6 21  2  0
 21 22  1  0
 22  3  2  0
 20  9  2  0
 18 13  1  0
  1 23  1  0
  1 24  1  0
  1 25  1  0
  4 26  1  0
  5 27  1  0
  8 28  1  0
  8 29  1  0
  8 30  1  0
 10 31  1  0
 11 32  1  0
 14 33  1  0
 14 34  1  0
 15 35  1  0
 15 36  1  0
 16 37  1  0
 17 38  1  0
 17 39  1  0
 18 40  1  0
 18 41  1  0
 19 42  1  0
 20 43  1  0
 21 44  1  0
 22 45  1  0
M  END
>  <meeko>  (1) 
{"is_sidechain": false}

>  <smiles>  (1) 
COc1ccc(N(C)c2ccc(N3CCNCC3)cc2)cc1

>  <vina_score>  (1) 
-7.071

>  <job_id>  (1) 
8c47fb5e3ac5edb7

$$$$
