
     RDKit          3D

 48 52  0  0  0  0  0  0  0  0999 V2000
   56.7160   78.4100   29.4590 N   0  0  0  0  0  0  0  0  0  0  0  0
   57.7950   79.4130   28.6390 S   0  0  0  0  0  0  0  0  0  0  0  0
   58.9340   78.5800   28.3310 O   0  0  0  0  0  0  0  0  0  0  0  0
   57.0600   80.1350   27.6290 O   0  0  0  0  0  0  0  0  0  0  0  0
   58.2550   80.5520   29.9170 C   0  0  0  0  0  0  0  0  0  0  0  0
   58.0200   80.2330   31.2570 C   0  0  0  0  0  0  0  0  0  0  0  0
   58.3460   81.1620   32.2480 C   0  0  0  0  0  0  0  0  0  0  0  0
   58.8810   82.4110   31.9060 C   0  0  0  0  0  0  0  0  0  0  0  0
   59.1740   83.3850   32.8680 N   0  0  0  0  0  0  0  0  0  0  0  0
   60.3680   83.5340   33.3640 C   0  0  0  0  0  0  0  0  0  0  0  0
   60.6820   84.4980   34.2600 O   0  0  0  0  0  0  0  0  0  0  0  0
   60.3060   85.7480   34.0950 C   0  0  0  0  0  0  0  0  0  0  0  0
   59.4740   86.6760   34.6850 C   0  0  0  0  0  0  0  0  0  0  0  0
   59.5210   87.8640   33.9940 N   0  0  0  0  0  0  0  0  0  0  0  0
   60.3640   87.6110   33.0200 C   0  0  0  0  0  0  0  0  0  0  0  0
   60.8820   86.3550   33.0100 O   0  0  0  0  0  0  0  0  0  0  0  0
   61.5170   82.6920   33.0560 C   0  0  0  0  0  0  0  0  0  0  0  0
   61.7610   81.4650   33.6510 C   0  0  0  0  0  0  0  0  0  0  0  0
   61.0630   80.8110   34.5720 O   0  0  0  0  0  0  0  0  0  0  0  0
   62.9400   80.9800   33.1500 N   0  0  0  0  0  0  0  0  0  0  0  0
   63.4760   81.8620   32.2400 C   0  0  0  0  0  0  0  0  0  0  0  0
   64.6670   81.7890   31.5120 C   0  0  0  0  0  0  0  0  0  0  0  0
   64.9610   82.8480   30.6440 C   0  0  0  0  0  0  0  0  0  0  0  0
   64.0920   83.9340   30.4810 C   0  0  0  0  0  0  0  0  0  0  0  0
   64.4180   85.0330   29.5830 C   0  0  0  0  0  0  0  0  0  0  0  0
   64.2010   86.3950   29.5680 C   0  0  0  0  0  0  0  0  0  0  0  0
   64.7730   86.9590   28.4560 N   0  0  0  0  0  0  0  0  0  0  0  0
   65.3100   85.9330   27.8380 C   0  0  0  0  0  0  0  0  0  0  0  0
   65.1430   84.7330   28.4570 O   0  0  0  0  0  0  0  0  0  0  0  0
   62.8910   83.9580   31.2110 C   0  0  0  0  0  0  0  0  0  0  0  0
   62.5880   82.9280   32.1310 C   0  0  0  0  0  0  0  0  0  0  0  0
   59.1770   82.6810   30.5650 C   0  0  0  0  0  0  0  0  0  0  0  0
   58.8580   81.7610   29.5650 C   0  0  0  0  0  0  0  0  0  0  0  0
   56.8700   78.5130   30.4630 H   0  0  0  0  0  0  0  0  0  0  0  0
   55.7410   78.5700   29.2070 H   0  0  0  0  0  0  0  0  0  0  0  0
   57.5830   79.2608   31.5286 H   0  0  0  0  0  0  0  0  0  0  0  0
   58.1812   80.9108   33.3062 H   0  0  0  0  0  0  0  0  0  0  0  0
   58.8609   86.4924   35.5797 H   0  0  0  0  0  0  0  0  0  0  0  0
   60.6324   88.3638   32.2642 H   0  0  0  0  0  0  0  0  0  0  0  0
   61.6530   80.4350   35.2480 H   0  0  0  0  0  0  0  0  0  0  0  0
   63.3760   80.1080   33.4130 H   0  0  0  0  0  0  0  0  0  0  0  0
   65.3481   80.9316   31.6170 H   0  0  0  0  0  0  0  0  0  0  0  0
   65.9015   82.8261   30.0739 H   0  0  0  0  0  0  0  0  0  0  0  0
   63.6473   86.9507   30.3391 H   0  0  0  0  0  0  0  0  0  0  0  0
   65.8555   86.0359   26.8884 H   0  0  0  0  0  0  0  0  0  0  0  0
   62.1808   84.7852   31.0653 H   0  0  0  0  0  0  0  0  0  0  0  0
   59.6664   83.6287   30.2962 H   0  0  0  0  0  0  0  0  0  0  0  0
   59.0792   81.9860   28.5112 H   0  0  0  0  0  0  0  0  0  0  0  0
  1  2  1  0
  2  3  2  0
  2  4  2  0
  2  5  1  0
  5  6  1  0
  6  7  2  0
  7  8  1  0
  8  9  1  0
  9 10  2  3
 10 11  1  0
 11 12  1  0
 12 13  2  0
 13 14  1  0
 14 15  2  0
 15 16  1  0
 10 17  1  0
 17 18  2  0
 18 19  1  0
 18 20  1  0
 20 21  1  0
 21 22  2  0
 22 23  1  0
 23 24  2  0
 24 25  1  0
 25 26  2  0
 26 27  1  0
 27 28  2  0
 28 29  1  0
 24 30  1  0
 30 31  2  0
  8 32  2  0
 32 33  1  0
 33  5  2  0
 16 12  1  0
 31 17  1  0
 31 21  1  0
 29 25  1  0
  1 34  1  0
  1 35  1  0
  6 36  1  0
  7 37  1  0
 13 38  1  0
 15 39  1  0
 19 40  1  0
 20 41  1  0
 22 42  1  0
 23 43  1  0
 26 44  1  0
 28 45  1  0
 30 46  1  0
 32 47  1  0
 33 48  1  0
M  END
>  <meeko>  (1) 
{"is_sidechain": false}

>  <smiles>  (1) 
NS(=O)(=O)c1ccc(N=C(Oc2cnco2)c2c(O)[nH]c3ccc(-c4cnco4)cc23)cc1

>  <vina_score>  (1) 
-6.610

>  <job_id>  (1) 
8cbc96172fec3ff4

$$$$
