
     RDKit          3D

 43 45  0  0  0  0  0  0  0  0999 V2000
   59.6860   81.0300   28.7770 O   0  0  0  0  0  0  0  0  0  0  0  0
   59.0810   80.5210   29.7130 C   0  0  0  0  0  0  0  0  0  0  0  0
   58.1930   79.4770   29.5690 N   0  0  0  0  0  0  0  0  0  0  0  0
   57.8370   78.9640   28.2650 C   0  0  0  0  0  0  0  0  0  0  0  0
   56.3750   78.6050   28.2050 C   0  0  0  0  0  0  0  0  0  0  0  0
   55.7950   77.7850   29.1850 C   0  0  0  0  0  0  0  0  0  0  0  0
   54.4330   77.4750   29.1400 C   0  0  0  0  0  0  0  0  0  0  0  0
   53.6360   77.9750   28.1100 C   0  0  0  0  0  0  0  0  0  0  0  0
   54.2080   78.7750   27.1180 C   0  0  0  0  0  0  0  0  0  0  0  0
   53.3350   79.3210   26.0560 C   0  0  0  0  0  0  0  0  0  0  0  0
   52.9330   78.5510   25.1870 O   0  0  0  0  0  0  0  0  0  0  0  0
   53.0390   80.6710   26.0730 N   0  0  0  0  0  0  0  0  0  0  0  0
   52.2300   81.2610   25.0210 C   0  0  0  0  0  0  0  0  0  0  0  0
   52.5750   82.7430   25.0550 C   0  0  0  0  0  0  0  0  0  0  0  0
   52.9130   82.9790   26.5200 C   0  0  0  0  0  0  0  0  0  0  0  0
   53.6380   81.7000   26.9140 C   0  0  0  0  0  0  0  0  0  0  0  0
   55.5650   79.1070   27.1730 C   0  0  0  0  0  0  0  0  0  0  0  0
   59.2520   81.0550   31.0930 C   0  0  0  0  0  0  0  0  0  0  0  0
   58.2100   80.8750   32.0100 C   0  0  0  0  0  0  0  0  0  0  0  0
   58.3320   81.3570   33.3150 C   0  0  0  0  0  0  0  0  0  0  0  0
   59.4900   82.0300   33.7040 C   0  0  0  0  0  0  0  0  0  0  0  0
   60.5260   82.2260   32.7900 C   0  0  0  0  0  0  0  0  0  0  0  0
   60.4080   81.7430   31.4840 C   0  0  0  0  0  0  0  0  0  0  0  0
   57.5580   79.2710   30.3280 H   0  0  0  0  0  0  0  0  0  0  0  0
   58.0501   79.7315   27.5064 H   0  0  0  0  0  0  0  0  0  0  0  0
   58.4282   78.0565   28.0728 H   0  0  0  0  0  0  0  0  0  0  0  0
   56.4186   77.3822   29.9967 H   0  0  0  0  0  0  0  0  0  0  0  0
   53.9890   76.8361   29.9176 H   0  0  0  0  0  0  0  0  0  0  0  0
   52.5618   77.7403   28.0791 H   0  0  0  0  0  0  0  0  0  0  0  0
   52.4860   80.8252   24.0440 H   0  0  0  0  0  0  0  0  0  0  0  0
   51.1554   81.0799   25.1706 H   0  0  0  0  0  0  0  0  0  0  0  0
   53.4377   82.9636   24.4092 H   0  0  0  0  0  0  0  0  0  0  0  0
   51.7627   83.3870   24.6871 H   0  0  0  0  0  0  0  0  0  0  0  0
   53.5659   83.8563   26.6388 H   0  0  0  0  0  0  0  0  0  0  0  0
   52.0290   83.1853   27.1412 H   0  0  0  0  0  0  0  0  0  0  0  0
   54.7164   81.7866   26.7150 H   0  0  0  0  0  0  0  0  0  0  0  0
   53.5398   81.4753   27.9863 H   0  0  0  0  0  0  0  0  0  0  0  0
   56.0000   79.7638   26.4053 H   0  0  0  0  0  0  0  0  0  0  0  0
   57.2924   80.3524   31.7019 H   0  0  0  0  0  0  0  0  0  0  0  0
   57.5150   81.2059   34.0359 H   0  0  0  0  0  0  0  0  0  0  0  0
   59.5868   82.4069   34.7329 H   0  0  0  0  0  0  0  0  0  0  0  0
   61.4364   82.7612   33.0978 H   0  0  0  0  0  0  0  0  0  0  0  0
   61.2230   81.9031   30.7628 H   0  0  0  0  0  0  0  0  0  0  0  0
  1  2  2  0
  2  3  1  0
  3  4  1  0
  4  5  1  0
  5  6  2  0
  6  7  1  0
  7  8  2  0
  8  9  1  0
  9 10  1  0
 10 11  2  0
 10 12  1  0
 12 13  1  0
 13 14  1  0
 14 15  1  0
 15 16  1  0
  9 17  2  0
  2 18  1  0
 18 19  2  0
 19 20  1  0
 20 21  2  0
 21 22  1  0
 22 23  2  0
 17  5  1  0
 23 18  1  0
 16 12  1  0
  3 24  1  0
  4 25  1  0
  4 26  1  0
  6 27  1  0
  7 28  1  0
  8 29  1  0
 13 30  1  0
 13 31  1  0
 14 32  1  0
 14 33  1  0
 15 34  1  0
 15 35  1  0
 16 36  1  0
 16 37  1  0
 17 38  1  0
 19 39  1  0
 20 40  1  0
 21 41  1  0
 22 42  1  0
 23 43  1  0
M  END
>  <meeko>  (1) 
{"is_sidechain": false}

>  <smiles>  (1) 
O=C(NCc1cccc(C(=O)N2CCCC2)c1)c1ccccc1

>  <vina_score>  (1) 
-9.325

>  <job_id>  (1) 
8cf76bc617531f6f

$$$$
