
     RDKit          3D

 59 63  0  0  0  0  0  0  0  0999 V2000
   63.7590   87.3600   29.9910 C   0  0  0  0  0  0  0  0  0  0  0  0
   63.6010   86.5920   31.3060 C   0  0  0  0  0  0  0  0  0  0  0  0
   64.9620   86.1350   31.8380 C   0  0  0  0  0  0  0  0  0  0  0  0
   62.6390   85.4270   31.1600 C   0  0  0  0  0  0  0  0  0  0  0  0
   61.2660   85.5690   31.3950 C   0  0  0  0  0  0  0  0  0  0  0  0
   60.3990   84.4800   31.2540 C   0  0  0  0  0  0  0  0  0  0  0  0
   60.8760   83.2160   30.8770 C   0  0  0  0  0  0  0  0  0  0  0  0
   59.9630   82.0700   30.7310 C   0  0  0  0  0  0  0  0  0  0  0  0
   59.1170   81.6770   31.7760 C   0  0  0  0  0  0  0  0  0  0  0  0
   58.2490   80.5850   31.6370 C   0  0  0  0  0  0  0  0  0  0  0  0
   58.1850   79.8570   30.4480 C   0  0  0  0  0  0  0  0  0  0  0  0
   57.3760   78.7310   30.2710 N   0  0  0  0  0  0  0  0  0  0  0  0
   56.3100   78.4440   29.4240 C   0  0  0  0  0  0  0  0  0  0  0  0
   55.6010   77.3510   29.7630 N   0  0  0  0  0  0  0  0  0  0  0  0
   54.5440   77.0240   28.9950 C   0  0  0  0  0  0  0  0  0  0  0  0
   54.1580   77.7520   27.9010 C   0  0  0  0  0  0  0  0  0  0  0  0
   54.9300   78.8790   27.6620 C   0  0  0  0  0  0  0  0  0  0  0  0
   56.0010   79.2360   28.3860 N   0  0  0  0  0  0  0  0  0  0  0  0
   54.5550   79.7120   26.5340 C   0  0  0  0  0  0  0  0  0  0  0  0
   53.6230   79.3350   25.5830 C   0  0  0  0  0  0  0  0  0  0  0  0
   53.5660   80.4100   24.6530 C   0  0  0  0  0  0  0  0  0  0  0  0
   52.7590   80.5330   23.4310 C   0  0  0  0  0  0  0  0  0  0  0  0
   53.2770   81.3570   22.4620 N   0  0  0  0  0  0  0  0  0  0  0  0
   51.7080   79.9330   23.2160 O   0  0  0  0  0  0  0  0  0  0  0  0
   54.4000   81.3970   25.0340 N   0  0  0  0  0  0  0  0  0  0  0  0
   54.9820   80.9530   26.1680 N   0  0  0  0  0  0  0  0  0  0  0  0
   55.9350   81.8050   26.8400 C   0  0  0  0  0  0  0  0  0  0  0  0
   52.9790   77.9900   25.6290 C   0  0  0  0  0  0  0  0  0  0  0  0
   52.9350   77.4350   27.0760 C   0  0  0  0  0  0  0  0  0  0  0  0
   59.0410   80.2420   29.4060 C   0  0  0  0  0  0  0  0  0  0  0  0
   59.9100   81.3330   29.5420 C   0  0  0  0  0  0  0  0  0  0  0  0
   62.2520   83.0800   30.6450 C   0  0  0  0  0  0  0  0  0  0  0  0
   63.1220   84.1680   30.7830 C   0  0  0  0  0  0  0  0  0  0  0  0
   63.9763   88.4164   30.2072 H   0  0  0  0  0  0  0  0  0  0  0  0
   64.5868   86.9267   29.4105 H   0  0  0  0  0  0  0  0  0  0  0  0
   62.8274   87.2887   29.4105 H   0  0  0  0  0  0  0  0  0  0  0  0
   63.1647   87.2792   32.0459 H   0  0  0  0  0  0  0  0  0  0  0  0
   64.9463   86.1403   32.9379 H   0  0  0  0  0  0  0  0  0  0  0  0
   65.1728   85.1168   31.4792 H   0  0  0  0  0  0  0  0  0  0  0  0
   65.7446   86.8196   31.4792 H   0  0  0  0  0  0  0  0  0  0  0  0
   60.8642   86.5484   31.6940 H   0  0  0  0  0  0  0  0  0  0  0  0
   59.3240   84.6176   31.4422 H   0  0  0  0  0  0  0  0  0  0  0  0
   59.1341   82.2357   32.7234 H   0  0  0  0  0  0  0  0  0  0  0  0
   57.6059   80.2963   32.4814 H   0  0  0  0  0  0  0  0  0  0  0  0
   57.6960   77.8750   30.7000 H   0  0  0  0  0  0  0  0  0  0  0  0
   53.9624   76.1286   29.2593 H   0  0  0  0  0  0  0  0  0  0  0  0
   54.2740   81.5160   22.4490 H   0  0  0  0  0  0  0  0  0  0  0  0
   52.8160   81.2680   21.5660 H   0  0  0  0  0  0  0  0  0  0  0  0
   55.8172   81.6997   27.9286 H   0  0  0  0  0  0  0  0  0  0  0  0
   56.9555   81.5126   26.5516 H   0  0  0  0  0  0  0  0  0  0  0  0
   55.7582   82.8517   26.5516 H   0  0  0  0  0  0  0  0  0  0  0  0
   51.9513   78.0716   25.2452 H   0  0  0  0  0  0  0  0  0  0  0  0
   53.5720   77.3001   25.0107 H   0  0  0  0  0  0  0  0  0  0  0  0
   52.0575   77.8633   27.5825 H   0  0  0  0  0  0  0  0  0  0  0  0
   52.8879   76.3393   26.9914 H   0  0  0  0  0  0  0  0  0  0  0  0
   59.0301   79.6761   28.4628 H   0  0  0  0  0  0  0  0  0  0  0  0
   60.5608   81.6147   28.7011 H   0  0  0  0  0  0  0  0  0  0  0  0
   62.6554   82.1003   30.3491 H   0  0  0  0  0  0  0  0  0  0  0  0
   64.1970   84.0323   30.5932 H   0  0  0  0  0  0  0  0  0  0  0  0
  1  2  1  0
  2  3  1  0
  2  4  1  0
  4  5  1  0
  5  6  2  0
  6  7  1  0
  7  8  1  0
  8  9  1  0
  9 10  2  0
 10 11  1  0
 11 12  1  0
 12 13  1  0
 13 14  2  0
 14 15  1  0
 15 16  2  0
 16 17  1  0
 17 18  2  0
 17 19  1  0
 19 20  2  0
 20 21  1  0
 21 22  1  0
 22 23  1  0
 22 24  2  0
 21 25  2  0
 25 26  1  0
 26 27  1  0
 20 28  1  0
 28 29  1  0
 11 30  2  0
 30 31  1  0
  7 32  2  0
 32 33  1  0
 33  4  2  0
 31  8  2  0
 18 13  1  0
 26 19  1  0
 29 16  1  0
  1 34  1  0
  1 35  1  0
  1 36  1  0
  2 37  1  0
  3 38  1  0
  3 39  1  0
  3 40  1  0
  5 41  1  0
  6 42  1  0
  9 43  1  0
 10 44  1  0
 12 45  1  0
 15 46  1  0
 23 47  1  0
 23 48  1  0
 27 49  1  0
 27 50  1  0
 27 51  1  0
 28 52  1  0
 28 53  1  0
 29 54  1  0
 29 55  1  0
 30 56  1  0
 31 57  1  0
 32 58  1  0
 33 59  1  0
M  END
>  <meeko>  (1) 
{"is_sidechain": false}

>  <smiles>  (1) 
CC(C)c1ccc(-c2ccc(Nc3ncc4c(n3)-c3c(c(C(N)=O)nn3C)CC4)cc2)cc1

>  <vina_score>  (1) 
-9.661

>  <job_id>  (1) 
8d4092b1bb249aee

$$$$
