
     RDKit          3D

 61 64  0  0  0  0  0  0  0  0999 V2000
   63.8850   87.8480   29.2590 C   0  0  0  0  0  0  0  0  0  0  0  0
   64.0230   86.4180   29.6420 C   0  0  0  0  0  0  0  0  0  0  0  0
   64.7030   85.5480   28.9250 N   0  0  0  0  0  0  0  0  0  0  0  0
   64.5830   84.3570   29.5710 C   0  0  0  0  0  0  0  0  0  0  0  0
   63.8120   84.4650   30.7150 C   0  0  0  0  0  0  0  0  0  0  0  0
   63.4240   83.4060   31.6470 C   0  0  0  0  0  0  0  0  0  0  0  0
   62.1300   83.0160   31.5770 N   0  0  0  0  0  0  0  0  0  0  0  0
   61.7530   81.9950   32.3790 C   0  0  0  0  0  0  0  0  0  0  0  0
   60.3570   81.5290   32.3050 C   0  0  0  0  0  0  0  0  0  0  0  0
   60.0240   80.7620   31.2260 N   0  0  0  0  0  0  0  0  0  0  0  0
   58.7610   80.3230   31.1170 C   0  0  0  0  0  0  0  0  0  0  0  0
   58.5070   79.5490   29.9910 N   0  0  0  0  0  0  0  0  0  0  0  0
   57.4210   79.4300   29.1180 C   0  0  0  0  0  0  0  0  0  0  0  0
   57.3530   80.2940   28.0120 C   0  0  0  0  0  0  0  0  0  0  0  0
   56.2930   80.2320   27.1000 C   0  0  0  0  0  0  0  0  0  0  0  0
   55.2650   79.3000   27.2710 C   0  0  0  0  0  0  0  0  0  0  0  0
   54.1590   79.2710   26.2780 C   0  0  0  0  0  0  0  0  0  0  0  0
   54.0920   78.3620   25.4500 O   0  0  0  0  0  0  0  0  0  0  0  0
   53.2270   80.2970   26.3210 N   0  0  0  0  0  0  0  0  0  0  0  0
   52.1200   80.2710   25.4370 N   0  0  0  0  0  0  0  0  0  0  0  0
   51.9480   81.5740   24.7630 C   0  0  0  0  0  0  0  0  0  0  0  0
   52.5900   81.5940   23.3840 C   0  0  0  0  0  0  0  0  0  0  0  0
   52.5600   82.4820   22.5450 O   0  0  0  0  0  0  0  0  0  0  0  0
   53.3100   80.4730   23.1450 O   0  0  0  0  0  0  0  0  0  0  0  0
   55.3280   78.4410   28.3660 C   0  0  0  0  0  0  0  0  0  0  0  0
   54.3730   77.5240   28.5810 F   0  0  0  0  0  0  0  0  0  0  0  0
   56.3880   78.5030   29.2770 C   0  0  0  0  0  0  0  0  0  0  0  0
   57.8100   80.6060   32.0180 N   0  0  0  0  0  0  0  0  0  0  0  0
   58.1640   81.3580   33.0790 C   0  0  0  0  0  0  0  0  0  0  0  0
   59.4290   81.8450   33.2730 C   0  0  0  0  0  0  0  0  0  0  0  0
   59.7210   82.5550   34.3700 F   0  0  0  0  0  0  0  0  0  0  0  0
   62.5810   81.3560   33.2360 N   0  0  0  0  0  0  0  0  0  0  0  0
   63.8590   81.7810   33.2710 C   0  0  0  0  0  0  0  0  0  0  0  0
   64.3360   82.8030   32.4910 C   0  0  0  0  0  0  0  0  0  0  0  0
   65.6210   83.1750   32.5660 F   0  0  0  0  0  0  0  0  0  0  0  0
   63.4910   85.8200   30.7730 N   0  0  0  0  0  0  0  0  0  0  0  0
   62.7500   86.4750   31.8540 C   0  0  0  0  0  0  0  0  0  0  0  0
   61.2340   86.2600   31.8020 C   0  0  0  0  0  0  0  0  0  0  0  0
   63.3230   86.1260   33.2270 C   0  0  0  0  0  0  0  0  0  0  0  0
   63.8253   88.4666   30.1666 H   0  0  0  0  0  0  0  0  0  0  0  0
   64.7578   88.1540   28.6635 H   0  0  0  0  0  0  0  0  0  0  0  0
   62.9698   87.9814   28.6635 H   0  0  0  0  0  0  0  0  0  0  0  0
   65.0438   83.4199   29.2253 H   0  0  0  0  0  0  0  0  0  0  0  0
   59.3010   78.9460   29.8260 H   0  0  0  0  0  0  0  0  0  0  0  0
   58.1508   81.0358   27.8594 H   0  0  0  0  0  0  0  0  0  0  0  0
   56.2686   80.9212   26.2430 H   0  0  0  0  0  0  0  0  0  0  0  0
   53.2630   81.0330   27.0320 H   0  0  0  0  0  0  0  0  0  0  0  0
   52.3470   79.5750   24.7130 H   0  0  0  0  0  0  0  0  0  0  0  0
   50.8725   81.7791   24.6566 H   0  0  0  0  0  0  0  0  0  0  0  0
   52.4416   82.3411   25.3777 H   0  0  0  0  0  0  0  0  0  0  0  0
   54.0130   80.7790   22.5340 H   0  0  0  0  0  0  0  0  0  0  0  0
   56.4084   77.8110   30.1318 H   0  0  0  0  0  0  0  0  0  0  0  0
   57.3951   81.5933   33.8297 H   0  0  0  0  0  0  0  0  0  0  0  0
   64.5558   81.2824   33.9609 H   0  0  0  0  0  0  0  0  0  0  0  0
   62.8937   87.5526   31.6866 H   0  0  0  0  0  0  0  0  0  0  0  0
   60.8363   86.2036   32.8260 H   0  0  0  0  0  0  0  0  0  0  0  0
   60.7625   87.1003   31.2713 H   0  0  0  0  0  0  0  0  0  0  0  0
   61.0147   85.3218   31.2713 H   0  0  0  0  0  0  0  0  0  0  0  0
   62.6647   86.5270   34.0118 H   0  0  0  0  0  0  0  0  0  0  0  0
   63.3912   85.0328   33.3288 H   0  0  0  0  0  0  0  0  0  0  0  0
   64.3256   86.5670   33.3288 H   0  0  0  0  0  0  0  0  0  0  0  0
  1  2  1  0
  2  3  2  0
  3  4  1  0
  4  5  2  0
  5  6  1  0
  6  7  2  0
  7  8  1  0
  8  9  1  0
  9 10  2  0
 10 11  1  0
 11 12  1  0
 12 13  1  0
 13 14  1  0
 14 15  2  0
 15 16  1  0
 16 17  1  0
 17 18  2  0
 17 19  1  0
 19 20  1  0
 20 21  1  0
 21 22  1  0
 22 23  2  0
 22 24  1  0
 16 25  2  0
 25 26  1  0
 25 27  1  0
 11 28  2  0
 28 29  1  0
 29 30  2  0
 30 31  1  0
  8 32  2  0
 32 33  1  0
 33 34  2  0
 34 35  1  0
  5 36  1  0
 36 37  1  0
 37 38  1  0
 37 39  1  0
 36  2  1  0
 34  6  1  0
 30  9  1  0
 27 13  2  0
  1 40  1  0
  1 41  1  0
  1 42  1  0
  4 43  1  0
 12 44  1  0
 14 45  1  0
 15 46  1  0
 19 47  1  0
 20 48  1  0
 21 49  1  0
 21 50  1  0
 24 51  1  0
 27 52  1  0
 29 53  1  0
 33 54  1  0
 37 55  1  0
 38 56  1  0
 38 57  1  0
 38 58  1  0
 39 59  1  0
 39 60  1  0
 39 61  1  0
M  END
>  <meeko>  (1) 
{"is_sidechain": false}

>  <smiles>  (1) 
Cc1ncc(-c2nc(-c3nc(Nc4ccc(C(=O)NNCC(=O)O)c(F)c4)ncc3F)ncc2F)n1C(C)C

>  <vina_score>  (1) 
-8.276

>  <job_id>  (1) 
8de1a7b650e541c1

$$$$
