
     RDKit          3D

 60 63  0  0  0  0  0  0  0  0999 V2000
   65.3100   86.2230   27.6070 C   0  0  0  0  0  0  0  0  0  0  0  0
   65.9460   85.1900   28.4900 C   0  0  0  0  0  0  0  0  0  0  0  0
   66.7490   84.3570   28.0910 O   0  0  0  0  0  0  0  0  0  0  0  0
   65.5600   85.2480   29.9560 C   0  0  0  0  0  0  0  0  0  0  0  0
   66.3290   85.8160   30.7260 O   0  0  0  0  0  0  0  0  0  0  0  0
   64.2790   84.6710   30.4410 C   0  0  0  0  0  0  0  0  0  0  0  0
   63.1480   85.4510   30.7040 C   0  0  0  0  0  0  0  0  0  0  0  0
   61.9750   84.8510   31.1770 C   0  0  0  0  0  0  0  0  0  0  0  0
   61.9260   83.4710   31.4070 C   0  0  0  0  0  0  0  0  0  0  0  0
   60.6530   82.8790   31.8940 C   0  0  0  0  0  0  0  0  0  0  0  0
   60.1800   83.2720   32.9570 O   0  0  0  0  0  0  0  0  0  0  0  0
   59.9390   81.8280   31.1270 C   0  0  0  0  0  0  0  0  0  0  0  0
   59.2130   80.8200   31.7620 C   0  0  0  0  0  0  0  0  0  0  0  0
   58.5490   79.8540   30.9960 C   0  0  0  0  0  0  0  0  0  0  0  0
   58.5740   79.8860   29.5910 C   0  0  0  0  0  0  0  0  0  0  0  0
   57.9330   78.8570   28.8920 N   0  0  0  0  0  0  0  0  0  0  0  0
   56.5970   78.5730   28.6260 C   0  0  0  0  0  0  0  0  0  0  0  0
   55.9930   77.7840   29.5350 N   0  0  0  0  0  0  0  0  0  0  0  0
   54.6930   77.4840   29.3260 C   0  0  0  0  0  0  0  0  0  0  0  0
   53.9830   77.9250   28.2420 C   0  0  0  0  0  0  0  0  0  0  0  0
   52.6950   77.6010   28.0790 F   0  0  0  0  0  0  0  0  0  0  0  0
   54.6870   78.6970   27.3470 C   0  0  0  0  0  0  0  0  0  0  0  0
   54.0690   79.2600   26.1570 C   0  0  0  0  0  0  0  0  0  0  0  0
   53.5430   78.5870   25.0710 C   0  0  0  0  0  0  0  0  0  0  0  0
   53.0200   79.4440   24.1500 N   0  0  0  0  0  0  0  0  0  0  0  0
   53.2140   80.6500   24.6360 C   0  0  0  0  0  0  0  0  0  0  0  0
   52.7700   81.9040   23.9700 C   0  0  0  0  0  0  0  0  0  0  0  0
   53.8930   80.5980   25.8470 N   0  0  0  0  0  0  0  0  0  0  0  0
   54.3590   81.7810   26.5710 C   0  0  0  0  0  0  0  0  0  0  0  0
   53.2640   82.7960   26.9120 C   0  0  0  0  0  0  0  0  0  0  0  0
   55.5650   82.4400   25.9050 C   0  0  0  0  0  0  0  0  0  0  0  0
   55.9840   79.0290   27.5230 N   0  0  0  0  0  0  0  0  0  0  0  0
   59.3010   80.9100   28.9770 C   0  0  0  0  0  0  0  0  0  0  0  0
   59.9670   81.8830   29.7330 C   0  0  0  0  0  0  0  0  0  0  0  0
   63.0490   82.6850   31.1300 C   0  0  0  0  0  0  0  0  0  0  0  0
   64.2210   83.2850   30.6580 C   0  0  0  0  0  0  0  0  0  0  0  0
   64.8346   86.9952   28.2297 H   0  0  0  0  0  0  0  0  0  0  0  0
   66.0794   86.6865   26.9720 H   0  0  0  0  0  0  0  0  0  0  0  0
   64.5498   85.7447   26.9720 H   0  0  0  0  0  0  0  0  0  0  0  0
   63.1804   86.5380   30.5388 H   0  0  0  0  0  0  0  0  0  0  0  0
   61.0852   85.4685   31.3694 H   0  0  0  0  0  0  0  0  0  0  0  0
   59.1624   80.7842   32.8603 H   0  0  0  0  0  0  0  0  0  0  0  0
   57.9951   79.0517   31.5055 H   0  0  0  0  0  0  0  0  0  0  0  0
   58.4870   78.0370   28.6910 H   0  0  0  0  0  0  0  0  0  0  0  0
   54.1781   76.8526   30.0651 H   0  0  0  0  0  0  0  0  0  0  0  0
   53.5461   77.4923   24.9631 H   0  0  0  0  0  0  0  0  0  0  0  0
   52.5056   82.6507   24.7332 H   0  0  0  0  0  0  0  0  0  0  0  0
   53.5847   82.2940   23.3422 H   0  0  0  0  0  0  0  0  0  0  0  0
   51.8914   81.6945   23.3422 H   0  0  0  0  0  0  0  0  0  0  0  0
   54.6935   81.3889   27.5428 H   0  0  0  0  0  0  0  0  0  0  0  0
   53.1712   82.8820   28.0047 H   0  0  0  0  0  0  0  0  0  0  0  0
   53.5277   83.7762   26.4881 H   0  0  0  0  0  0  0  0  0  0  0  0
   52.3066   82.4588   26.4881 H   0  0  0  0  0  0  0  0  0  0  0  0
   56.2514   82.8151   26.6784 H   0  0  0  0  0  0  0  0  0  0  0  0
   56.0868   81.7016   25.2785 H   0  0  0  0  0  0  0  0  0  0  0  0
   55.2254   83.2779   25.2785 H   0  0  0  0  0  0  0  0  0  0  0  0
   59.3510   80.9525   27.8790 H   0  0  0  0  0  0  0  0  0  0  0  0
   60.5134   82.6924   29.2266 H   0  0  0  0  0  0  0  0  0  0  0  0
   63.0107   81.5964   31.2831 H   0  0  0  0  0  0  0  0  0  0  0  0
   65.1064   82.6647   30.4547 H   0  0  0  0  0  0  0  0  0  0  0  0
  1  2  1  0
  2  3  2  0
  2  4  1  0
  4  5  2  0
  4  6  1  0
  6  7  1  0
  7  8  2  0
  8  9  1  0
  9 10  1  0
 10 11  2  0
 10 12  1  0
 12 13  1  0
 13 14  2  0
 14 15  1  0
 15 16  1  0
 16 17  1  0
 17 18  2  0
 18 19  1  0
 19 20  2  0
 20 21  1  0
 20 22  1  0
 22 23  1  0
 23 24  2  0
 24 25  1  0
 25 26  2  0
 26 27  1  0
 26 28  1  0
 28 29  1  0
 29 30  1  0
 29 31  1  0
 22 32  2  0
 15 33  2  0
 33 34  1  0
  9 35  2  0
 35 36  1  0
 36  6  2  0
 34 12  2  0
 32 17  1  0
 28 23  1  0
  1 37  1  0
  1 38  1  0
  1 39  1  0
  7 40  1  0
  8 41  1  0
 13 42  1  0
 14 43  1  0
 16 44  1  0
 19 45  1  0
 24 46  1  0
 27 47  1  0
 27 48  1  0
 27 49  1  0
 29 50  1  0
 30 51  1  0
 30 52  1  0
 30 53  1  0
 31 54  1  0
 31 55  1  0
 31 56  1  0
 33 57  1  0
 34 58  1  0
 35 59  1  0
 36 60  1  0
M  END
>  <meeko>  (1) 
{"is_sidechain": false}

>  <smiles>  (1) 
CC(=O)C(=O)c1ccc(C(=O)c2ccc(Nc3ncc(F)c(-c4cnc(C)n4C(C)C)n3)cc2)cc1

>  <vina_score>  (1) 
-9.671

>  <job_id>  (1) 
8e1a6cbbe8588b71

$$$$
