
     RDKit          3D

 63 65  0  0  0  0  0  0  0  0999 V2000
   55.4300   82.9580   26.6390 C   0  0  0  0  0  0  0  0  0  0  0  0
   55.6550   81.7320   25.7620 C   0  0  0  0  0  0  0  0  0  0  0  0
   54.3720   80.8920   25.5630 C   0  0  1  0  0  0  0  0  0  0  0  0
   53.7660   80.6190   26.8850 N   0  0  0  0  0  0  0  0  0  0  0  0
   54.2790   79.5170   27.5620 C   0  0  0  0  0  0  0  0  0  0  0  0
   55.4990   79.6040   28.1280 N   0  0  0  0  0  0  0  0  0  0  0  0
   56.0320   78.5300   28.7690 C   0  0  0  0  0  0  0  0  0  0  0  0
   57.2940   78.6070   29.3740 N   0  0  0  0  0  0  0  0  0  0  0  0
   58.2390   79.4540   28.6670 C   0  0  0  0  0  0  0  0  0  0  0  0
   58.9200   80.3810   29.6380 C   0  0  0  0  0  0  0  0  0  0  0  0
   58.7810   80.2300   31.0220 C   0  0  0  0  0  0  0  0  0  0  0  0
   59.4090   81.1240   31.8850 C   0  0  0  0  0  0  0  0  0  0  0  0
   60.1550   82.1520   31.3320 C   0  0  0  0  0  0  0  0  0  0  0  0
   60.3060   82.3380   30.0040 N   0  0  0  0  0  0  0  0  0  0  0  0
   59.6840   81.4530   29.1900 C   0  0  0  0  0  0  0  0  0  0  0  0
   55.2710   77.3510   28.8060 C   0  0  0  0  0  0  0  0  0  0  0  0
   55.5140   76.1050   29.3430 N   0  0  0  0  0  0  0  0  0  0  0  0
   54.4390   75.4020   29.0570 C   0  0  0  0  0  0  0  0  0  0  0  0
   53.5160   76.1360   28.3550 N   0  0  0  0  0  0  0  0  0  0  0  0
   52.2270   75.6420   27.8910 C   0  0  0  0  0  0  0  0  0  0  0  0
   52.1870   75.4770   26.3720 C   0  0  0  0  0  0  0  0  0  0  0  0
   51.0660   76.4980   28.3950 C   0  0  0  0  0  0  0  0  0  0  0  0
   54.0380   77.3890   28.1810 C   0  0  0  0  0  0  0  0  0  0  0  0
   53.4890   78.4330   27.5430 N   0  0  0  0  0  0  0  0  0  0  0  0
   53.3160   81.6680   24.6950 C   0  0  0  0  0  0  0  0  0  0  0  0
   52.3070   82.2350   25.5550 O   0  0  0  0  0  0  0  0  0  0  0  0
   52.5910   80.8470   23.5800 C   0  0  0  0  0  0  0  0  0  0  0  0
   52.9400   79.3480   23.6590 C   0  0  0  0  0  0  0  0  0  0  0  0
   51.0630   80.9820   23.7740 C   0  0  0  0  0  0  0  0  0  0  0  0
   52.9350   81.3570   22.1720 C   0  0  0  0  0  0  0  0  0  0  0  0
   55.4836   82.6660   27.6982 H   0  0  0  0  0  0  0  0  0  0  0  0
   56.2054   83.7086   26.4259 H   0  0  0  0  0  0  0  0  0  0  0  0
   54.4386   83.3843   26.4259 H   0  0  0  0  0  0  0  0  0  0  0  0
   56.0125   82.0659   24.7767 H   0  0  0  0  0  0  0  0  0  0  0  0
   56.3928   81.0933   26.2697 H   0  0  0  0  0  0  0  0  0  0  0  0
   54.6474   79.9594   25.0489 H   0  0  0  0  0  0  0  0  0  0  0  0
   53.8240   81.3900   27.5460 H   0  0  0  0  0  0  0  0  0  0  0  0
   57.6310   77.6650   29.5720 H   0  0  0  0  0  0  0  0  0  0  0  0
   58.9938   78.8250   28.1723 H   0  0  0  0  0  0  0  0  0  0  0  0
   57.7005   80.0488   27.9145 H   0  0  0  0  0  0  0  0  0  0  0  0
   58.1761   79.4058   31.4279 H   0  0  0  0  0  0  0  0  0  0  0  0
   59.3154   81.0170   32.9758 H   0  0  0  0  0  0  0  0  0  0  0  0
   60.6526   82.8568   32.0143 H   0  0  0  0  0  0  0  0  0  0  0  0
   59.7898   81.5909   28.1038 H   0  0  0  0  0  0  0  0  0  0  0  0
   54.2970   74.3503   29.3464 H   0  0  0  0  0  0  0  0  0  0  0  0
   52.1016   74.6404   28.3280 H   0  0  0  0  0  0  0  0  0  0  0  0
   51.9346   74.4358   26.1228 H   0  0  0  0  0  0  0  0  0  0  0  0
   51.4260   76.1499   25.9500 H   0  0  0  0  0  0  0  0  0  0  0  0
   53.1717   75.7266   25.9500 H   0  0  0  0  0  0  0  0  0  0  0  0
   51.0627   76.5004   29.4950 H   0  0  0  0  0  0  0  0  0  0  0  0
   51.1827   77.5278   28.0264 H   0  0  0  0  0  0  0  0  0  0  0  0
   50.1167   76.0820   28.0264 H   0  0  0  0  0  0  0  0  0  0  0  0
   53.9124   82.4268   24.1672 H   0  0  0  0  0  0  0  0  0  0  0  0
   52.7520   82.9910   25.9930 H   0  0  0  0  0  0  0  0  0  0  0  0
   53.0110   79.0431   24.7135 H   0  0  0  0  0  0  0  0  0  0  0  0
   52.1543   78.7618   23.1599 H   0  0  0  0  0  0  0  0  0  0  0  0
   53.9038   79.1691   23.1599 H   0  0  0  0  0  0  0  0  0  0  0  0
   50.8303   81.0026   24.8489 H   0  0  0  0  0  0  0  0  0  0  0  0
   50.7149   81.9144   23.3056 H   0  0  0  0  0  0  0  0  0  0  0  0
   50.5568   80.1251   23.3056 H   0  0  0  0  0  0  0  0  0  0  0  0
   53.5485   82.2666   22.2512 H   0  0  0  0  0  0  0  0  0  0  0  0
   53.4960   80.5825   21.6284 H   0  0  0  0  0  0  0  0  0  0  0  0
   52.0068   81.5870   21.6284 H   0  0  0  0  0  0  0  0  0  0  0  0
  1  2  1  0
  2  3  1  0
  3  4  1  0
  4  5  1  0
  5  6  2  0
  6  7  1  0
  7  8  1  0
  8  9  1  0
  9 10  1  0
 10 11  1  0
 11 12  2  0
 12 13  1  0
 13 14  2  0
 14 15  1  0
  7 16  2  0
 16 17  1  0
 17 18  2  0
 18 19  1  0
 19 20  1  0
 20 21  1  0
 20 22  1  0
 19 23  1  0
 23 24  2  0
  3 25  1  0
 25 26  1  0
 25 27  1  0
 27 28  1  0
 27 29  1  0
 27 30  1  0
 24  5  1  0
 15 10  2  0
 23 16  1  0
  1 31  1  0
  1 32  1  0
  1 33  1  0
  2 34  1  0
  2 35  1  0
  3 36  1  6
  4 37  1  0
  8 38  1  0
  9 39  1  0
  9 40  1  0
 11 41  1  0
 12 42  1  0
 13 43  1  0
 15 44  1  0
 18 45  1  0
 20 46  1  0
 21 47  1  0
 21 48  1  0
 21 49  1  0
 22 50  1  0
 22 51  1  0
 22 52  1  0
 25 53  1  0
 26 54  1  0
 28 55  1  0
 28 56  1  0
 28 57  1  0
 29 58  1  0
 29 59  1  0
 29 60  1  0
 30 61  1  0
 30 62  1  0
 30 63  1  0
M  END
>  <meeko>  (1) 
{"is_sidechain": false}

>  <smiles>  (1) 
CC[C@@H](Nc1nc(NCc2cccnc2)c2ncn(C(C)C)c2n1)C(O)C(C)(C)C

>  <vina_score>  (1) 
-7.830

>  <job_id>  (1) 
8e811ae403220313

$$$$
