
     RDKit          3D

 70 73  0  0  0  0  0  0  0  0999 V2000
   52.7720   81.6710   24.0330 C   0  0  0  0  0  0  0  0  0  0  0  0
   53.1880   80.4210   24.7240 C   0  0  0  0  0  0  0  0  0  0  0  0
   52.9530   79.2110   24.2680 N   0  0  0  0  0  0  0  0  0  0  0  0
   53.4670   78.3600   25.2000 C   0  0  0  0  0  0  0  0  0  0  0  0
   54.0290   79.0410   26.2640 C   0  0  0  0  0  0  0  0  0  0  0  0
   54.6500   78.4800   27.4570 C   0  0  0  0  0  0  0  0  0  0  0  0
   55.9430   78.8240   27.6410 N   0  0  0  0  0  0  0  0  0  0  0  0
   56.5580   78.3690   28.7470 C   0  0  0  0  0  0  0  0  0  0  0  0
   57.8880   78.7570   28.8750 N   0  0  0  0  0  0  0  0  0  0  0  0
   58.5440   79.7690   29.5840 C   0  0  0  0  0  0  0  0  0  0  0  0
   58.5230   79.8840   30.9790 C   0  0  0  0  0  0  0  0  0  0  0  0
   59.2230   80.9050   31.6350 C   0  0  0  0  0  0  0  0  0  0  0  0
   59.9800   81.8120   30.8950 C   0  0  0  0  0  0  0  0  0  0  0  0
   60.7140   82.9080   31.5590 C   0  0  0  0  0  0  0  0  0  0  0  0
   60.2600   84.0460   31.4740 O   0  0  0  0  0  0  0  0  0  0  0  0
   61.8900   82.6040   32.2170 N   0  0  0  0  0  0  0  0  0  0  0  0
   62.0360   81.9800   33.5230 C   0  0  0  0  0  0  0  0  0  0  0  0
   63.5400   81.9330   33.7550 C   0  0  0  0  0  0  0  0  0  0  0  0
   64.1010   81.7300   32.3450 C   0  0  2  0  0  0  0  0  0  0  0  0
   65.5070   82.0750   32.1510 N   0  0  0  0  0  0  0  0  0  0  0  0
   66.0020   82.2450   30.7770 C   0  0  2  0  0  0  0  0  0  0  0  0
   66.8100   81.0390   30.2770 C   0  0  0  0  0  0  0  0  0  0  0  0
   66.7470   83.5810   30.4750 C   0  0  2  0  0  0  0  0  0  0  0  0
   66.3260   84.7330   31.3840 C   0  0  0  0  0  0  0  0  0  0  0  0
   66.5020   83.9910   29.1240 O   0  0  0  0  0  0  0  0  0  0  0  0
   63.1590   82.6230   31.5060 C   0  0  0  0  0  0  0  0  0  0  0  0
   60.0050   81.7300   29.5040 C   0  0  0  0  0  0  0  0  0  0  0  0
   59.3010   80.7090   28.8600 C   0  0  0  0  0  0  0  0  0  0  0  0
   55.9520   77.5870   29.6560 N   0  0  0  0  0  0  0  0  0  0  0  0
   54.6570   77.2750   29.4420 C   0  0  0  0  0  0  0  0  0  0  0  0
   53.9490   77.7040   28.3530 C   0  0  0  0  0  0  0  0  0  0  0  0
   52.6650   77.3680   28.1850 F   0  0  0  0  0  0  0  0  0  0  0  0
   53.8820   80.3780   25.9280 N   0  0  0  0  0  0  0  0  0  0  0  0
   54.3840   81.5660   26.6190 C   0  0  0  0  0  0  0  0  0  0  0  0
   53.3100   82.5830   27.0120 C   0  0  0  0  0  0  0  0  0  0  0  0
   55.5610   82.2130   25.8900 C   0  0  0  0  0  0  0  0  0  0  0  0
   52.5173   82.4362   24.7811 H   0  0  0  0  0  0  0  0  0  0  0  0
   53.5977   82.0342   23.4035 H   0  0  0  0  0  0  0  0  0  0  0  0
   51.8933   81.4669   23.4035 H   0  0  0  0  0  0  0  0  0  0  0  0
   53.4383   77.2636   25.1160 H   0  0  0  0  0  0  0  0  0  0  0  0
   58.4450   78.2320   28.2160 H   0  0  0  0  0  0  0  0  0  0  0  0
   57.9458   79.1588   31.5714 H   0  0  0  0  0  0  0  0  0  0  0  0
   59.1754   80.9907   32.7306 H   0  0  0  0  0  0  0  0  0  0  0  0
   61.5411   82.5820   34.2994 H   0  0  0  0  0  0  0  0  0  0  0  0
   61.5742   80.9825   33.5648 H   0  0  0  0  0  0  0  0  0  0  0  0
   63.9020   82.8751   34.1925 H   0  0  0  0  0  0  0  0  0  0  0  0
   63.8450   81.1455   34.4599 H   0  0  0  0  0  0  0  0  0  0  0  0
   64.1160   80.6653   32.0691 H   0  0  0  0  0  0  0  0  0  0  0  0
   66.1090   81.4460   32.6790 H   0  0  0  0  0  0  0  0  0  0  0  0
   65.0694   82.3069   30.1969 H   0  0  0  0  0  0  0  0  0  0  0  0
   67.1909   80.4704   31.1382 H   0  0  0  0  0  0  0  0  0  0  0  0
   66.1628   80.3914   29.6673 H   0  0  0  0  0  0  0  0  0  0  0  0
   67.6551   81.3912   29.6673 H   0  0  0  0  0  0  0  0  0  0  0  0
   67.8118   83.3692   30.6520 H   0  0  0  0  0  0  0  0  0  0  0  0
   66.4368   84.4297   32.4355 H   0  0  0  0  0  0  0  0  0  0  0  0
   66.9625   85.6080   31.1857 H   0  0  0  0  0  0  0  0  0  0  0  0
   65.2753   84.9914   31.1857 H   0  0  0  0  0  0  0  0  0  0  0  0
   66.7570   84.9260   29.0450 H   0  0  0  0  0  0  0  0  0  0  0  0
   63.5521   83.6485   31.4440 H   0  0  0  0  0  0  0  0  0  0  0  0
   63.0588   82.2610   30.4721 H   0  0  0  0  0  0  0  0  0  0  0  0
   60.5754   82.4645   28.9166 H   0  0  0  0  0  0  0  0  0  0  0  0
   59.3393   80.6384   27.7629 H   0  0  0  0  0  0  0  0  0  0  0  0
   54.1438   76.6428   30.1816 H   0  0  0  0  0  0  0  0  0  0  0  0
   54.7643   81.1839   27.5778 H   0  0  0  0  0  0  0  0  0  0  0  0
   53.2461   82.6435   28.1085 H   0  0  0  0  0  0  0  0  0  0  0  0
   53.5735   83.5704   26.6050 H   0  0  0  0  0  0  0  0  0  0  0  0
   52.3385   82.2661   26.6050 H   0  0  0  0  0  0  0  0  0  0  0  0
   56.2769   82.6066   26.6266 H   0  0  0  0  0  0  0  0  0  0  0  0
   56.0593   81.4620   25.2593 H   0  0  0  0  0  0  0  0  0  0  0  0
   55.1940   83.0361   25.2593 H   0  0  0  0  0  0  0  0  0  0  0  0
  1  2  1  0
  2  3  2  0
  3  4  1  0
  4  5  2  0
  5  6  1  0
  6  7  2  0
  7  8  1  0
  8  9  1  0
  9 10  1  0
 10 11  1  0
 11 12  2  0
 12 13  1  0
 13 14  1  0
 14 15  2  0
 14 16  1  0
 16 17  1  0
 17 18  1  0
 18 19  1  0
 19 20  1  0
 20 21  1  0
 21 22  1  0
 21 23  1  0
 23 24  1  0
 23 25  1  0
 19 26  1  0
 13 27  2  0
 27 28  1  0
  8 29  2  0
 29 30  1  0
 30 31  2  0
 31 32  1  0
  5 33  1  0
 33 34  1  0
 34 35  1  0
 34 36  1  0
 33  2  1  0
 31  6  1  0
 28 10  2  0
 26 16  1  0
  1 37  1  0
  1 38  1  0
  1 39  1  0
  4 40  1  0
  9 41  1  0
 11 42  1  0
 12 43  1  0
 17 44  1  0
 17 45  1  0
 18 46  1  0
 18 47  1  0
 19 48  1  6
 20 49  1  0
 21 50  1  6
 22 51  1  0
 22 52  1  0
 22 53  1  0
 23 54  1  6
 24 55  1  0
 24 56  1  0
 24 57  1  0
 25 58  1  0
 26 59  1  0
 26 60  1  0
 27 61  1  0
 28 62  1  0
 30 63  1  0
 34 64  1  0
 35 65  1  0
 35 66  1  0
 35 67  1  0
 36 68  1  0
 36 69  1  0
 36 70  1  0
M  END
>  <meeko>  (1) 
{"is_sidechain": false}

>  <smiles>  (1) 
Cc1ncc(-c2nc(Nc3ccc(C(=O)N4CC[C@H](N[C@H](C)[C@H](C)O)C4)cc3)ncc2F)n1C(C)C

>  <vina_score>  (1) 
-9.302

>  <job_id>  (1) 
8f9a23ccfbae9e0b

$$$$
