
     RDKit          3D

 33 34  0  0  0  0  0  0  0  0999 V2000
   52.7620   81.7320   21.3190 C   0  0  0  0  0  0  0  0  0  0  0  0
   51.7740   81.3620   22.3950 C   0  0  0  0  0  0  0  0  0  0  0  0
   50.5780   81.6250   22.2800 O   0  0  0  0  0  0  0  0  0  0  0  0
   52.2630   80.6580   23.6170 C   0  0  0  0  0  0  0  0  0  0  0  0
   52.0780   81.1770   24.9040 C   0  0  0  0  0  0  0  0  0  0  0  0
   52.5590   80.4790   26.0170 C   0  0  0  0  0  0  0  0  0  0  0  0
   53.2380   79.2640   25.8530 C   0  0  0  0  0  0  0  0  0  0  0  0
   53.7150   78.5520   27.0660 C   0  0  0  0  0  0  0  0  0  0  0  0
   53.0160   77.6660   27.5500 O   0  0  0  0  0  0  0  0  0  0  0  0
   55.0110   78.8850   27.7080 C   0  0  0  0  0  0  0  0  0  0  0  0
   55.4550   78.2220   28.8590 C   0  0  0  0  0  0  0  0  0  0  0  0
   56.6920   78.5520   29.4260 C   0  0  0  0  0  0  0  0  0  0  0  0
   57.4930   79.5410   28.8420 C   0  0  0  0  0  0  0  0  0  0  0  0
   58.8170   79.9230   29.4030 C   0  0  0  0  0  0  0  0  0  0  0  0
   59.1070   79.5150   30.6760 N   0  0  0  0  0  0  0  0  0  0  0  0
   59.6100   80.6070   28.7700 O   0  0  0  0  0  0  0  0  0  0  0  0
   57.0600   80.1770   27.6710 C   0  0  0  0  0  0  0  0  0  0  0  0
   55.8260   79.8490   27.1050 C   0  0  0  0  0  0  0  0  0  0  0  0
   53.4050   78.7320   24.5700 C   0  0  0  0  0  0  0  0  0  0  0  0
   52.9260   79.4320   23.4590 C   0  0  0  0  0  0  0  0  0  0  0  0
   53.6959   82.0817   21.7833 H   0  0  0  0  0  0  0  0  0  0  0  0
   52.9706   80.8511   20.6941 H   0  0  0  0  0  0  0  0  0  0  0  0
   52.3407   82.5333   20.6941 H   0  0  0  0  0  0  0  0  0  0  0  0
   51.5540   82.1345   25.0403 H   0  0  0  0  0  0  0  0  0  0  0  0
   52.4033   80.8863   27.0269 H   0  0  0  0  0  0  0  0  0  0  0  0
   54.8311   77.4410   29.3182 H   0  0  0  0  0  0  0  0  0  0  0  0
   57.0356   78.0328   30.3329 H   0  0  0  0  0  0  0  0  0  0  0  0
   58.3940   79.2130   31.3230 H   0  0  0  0  0  0  0  0  0  0  0  0
   59.9580   79.8960   31.0730 H   0  0  0  0  0  0  0  0  0  0  0  0
   57.6952   80.9385   27.1950 H   0  0  0  0  0  0  0  0  0  0  0  0
   55.4943   80.3496   26.1834 H   0  0  0  0  0  0  0  0  0  0  0  0
   53.9121   77.7651   24.4358 H   0  0  0  0  0  0  0  0  0  0  0  0
   53.0704   79.0172   22.4505 H   0  0  0  0  0  0  0  0  0  0  0  0
  1  2  1  0
  2  3  2  0
  2  4  1  0
  4  5  1  0
  5  6  2  0
  6  7  1  0
  7  8  1  0
  8  9  2  0
  8 10  1  0
 10 11  1  0
 11 12  2  0
 12 13  1  0
 13 14  1  0
 14 15  1  0
 14 16  2  0
 13 17  2  0
 17 18  1  0
  7 19  2  0
 19 20  1  0
 20  4  2  0
 18 10  2  0
  1 21  1  0
  1 22  1  0
  1 23  1  0
  5 24  1  0
  6 25  1  0
 11 26  1  0
 12 27  1  0
 15 28  1  0
 15 29  1  0
 17 30  1  0
 18 31  1  0
 19 32  1  0
 20 33  1  0
M  END
>  <meeko>  (1) 
{"is_sidechain": false}

>  <smiles>  (1) 
CC(=O)c1ccc(C(=O)c2ccc(C(N)=O)cc2)cc1

>  <vina_score>  (1) 
-8.485

>  <job_id>  (1) 
900bfd87596f485f

$$$$
