
     RDKit          3D

 32 33  0  0  0  0  0  0  0  0999 V2000
   63.2560   81.7350   32.9790 C   0  0  0  0  0  0  0  0  0  0  0  0
   61.8680   81.9680   33.2220 O   0  0  0  0  0  0  0  0  0  0  0  0
   61.2660   82.7330   32.2780 C   0  0  0  0  0  0  0  0  0  0  0  0
   61.3890   83.9410   32.1500 O   0  0  0  0  0  0  0  0  0  0  0  0
   60.4080   81.8970   31.3940 C   0  0  0  0  0  0  0  0  0  0  0  0
   59.5040   81.0090   31.9950 C   0  0  0  0  0  0  0  0  0  0  0  0
   58.6740   80.2040   31.2090 C   0  0  0  0  0  0  0  0  0  0  0  0
   58.7500   80.2690   29.8130 C   0  0  0  0  0  0  0  0  0  0  0  0
   57.8460   79.3960   29.0100 C   0  0  0  0  0  0  0  0  0  0  0  0
   58.1830   79.1120   27.8670 O   0  0  0  0  0  0  0  0  0  0  0  0
   56.6780   79.0240   29.6500 N   0  0  0  0  0  0  0  0  0  0  0  0
   55.6650   78.1770   29.1530 C   0  0  0  0  0  0  0  0  0  0  0  0
   54.7520   78.7350   28.2480 C   0  0  0  0  0  0  0  0  0  0  0  0
   53.7150   77.9650   27.7130 C   0  0  0  0  0  0  0  0  0  0  0  0
   53.5840   76.6300   28.0850 C   0  0  0  0  0  0  0  0  0  0  0  0
   52.3080   75.6790   27.4300 Cl  0  0  0  0  0  0  0  0  0  0  0  0
   54.4800   76.0640   28.9870 C   0  0  0  0  0  0  0  0  0  0  0  0
   55.5180   76.8370   29.5200 C   0  0  0  0  0  0  0  0  0  0  0  0
   59.6390   81.1660   29.2060 C   0  0  0  0  0  0  0  0  0  0  0  0
   60.4670   81.9730   29.9940 C   0  0  0  0  0  0  0  0  0  0  0  0
   63.7863   81.6460   33.9386 H   0  0  0  0  0  0  0  0  0  0  0  0
   63.3766   80.8040   32.4056 H   0  0  0  0  0  0  0  0  0  0  0  0
   63.6740   82.5755   32.4056 H   0  0  0  0  0  0  0  0  0  0  0  0
   59.4476   80.9455   33.0917 H   0  0  0  0  0  0  0  0  0  0  0  0
   57.9600   79.5183   31.6886 H   0  0  0  0  0  0  0  0  0  0  0  0
   56.4870   79.4560   30.5450 H   0  0  0  0  0  0  0  0  0  0  0  0
   54.8524   79.7906   27.9553 H   0  0  0  0  0  0  0  0  0  0  0  0
   53.0056   78.4122   27.0011 H   0  0  0  0  0  0  0  0  0  0  0  0
   54.3725   75.0095   29.2810 H   0  0  0  0  0  0  0  0  0  0  0  0
   56.2235   76.3860   30.2334 H   0  0  0  0  0  0  0  0  0  0  0  0
   59.6860   81.2358   28.1092 H   0  0  0  0  0  0  0  0  0  0  0  0
   61.1682   82.6710   29.5133 H   0  0  0  0  0  0  0  0  0  0  0  0
  1  2  1  0
  2  3  1  0
  3  4  2  0
  3  5  1  0
  5  6  1  0
  6  7  2  0
  7  8  1  0
  8  9  1  0
  9 10  2  0
  9 11  1  0
 11 12  1  0
 12 13  1  0
 13 14  2  0
 14 15  1  0
 15 16  1  0
 15 17  2  0
 17 18  1  0
  8 19  2  0
 19 20  1  0
 20  5  2  0
 18 12  2  0
  1 21  1  0
  1 22  1  0
  1 23  1  0
  6 24  1  0
  7 25  1  0
 11 26  1  0
 13 27  1  0
 14 28  1  0
 17 29  1  0
 18 30  1  0
 19 31  1  0
 20 32  1  0
M  END
>  <meeko>  (1) 
{"is_sidechain": false}

>  <smiles>  (1) 
COC(=O)c1ccc(C(=O)Nc2ccc(Cl)cc2)cc1

>  <vina_score>  (1) 
-7.417

>  <job_id>  (1) 
9069ca85391ab3e1

$$$$
