
     RDKit          3D

 47 50  0  0  0  0  0  0  0  0999 V2000
   58.5810   79.2190   28.0600 O   0  0  0  0  0  0  0  0  0  0  0  0
   57.6980   79.3710   28.8940 C   0  0  0  0  0  0  0  0  0  0  0  0
   57.7510   80.1280   30.0370 N   0  0  0  0  0  0  0  0  0  0  0  0
   58.8420   80.8500   30.4920 C   0  0  0  0  0  0  0  0  0  0  0  0
   59.4480   81.7660   29.7410 N   0  0  0  0  0  0  0  0  0  0  0  0
   60.4980   82.3960   30.2920 C   0  0  0  0  0  0  0  0  0  0  0  0
   60.9900   82.1420   31.5600 C   0  0  0  0  0  0  0  0  0  0  0  0
   60.2810   81.1900   32.2800 C   0  0  0  0  0  0  0  0  0  0  0  0
   59.2240   80.5260   31.7370 N   0  0  0  0  0  0  0  0  0  0  0  0
   60.6290   80.7610   33.6950 C   0  0  0  0  0  0  0  0  0  0  0  0
   61.7900   81.4350   34.2850 N   0  0  0  0  0  0  0  0  0  0  0  0
   61.8850   81.3230   35.6820 N   0  0  0  0  0  0  0  0  0  0  0  0
   61.6100   80.1260   36.4330 C   0  0  0  0  0  0  0  0  0  0  0  0
   62.0870   80.4880   37.8250 C   0  0  0  0  0  0  0  0  0  0  0  0
   61.8110   81.9850   37.9240 C   0  0  0  0  0  0  0  0  0  0  0  0
   61.9480   82.4630   36.4970 C   0  0  0  0  0  0  0  0  0  0  0  0
   62.0570   83.6310   36.1600 O   0  0  0  0  0  0  0  0  0  0  0  0
   63.0680   81.1450   33.6350 C   0  0  0  0  0  0  0  0  0  0  0  0
   63.3710   82.0530   32.4430 C   0  0  0  0  0  0  0  0  0  0  0  0
   62.1760   82.9200   32.0550 C   0  0  0  0  0  0  0  0  0  0  0  0
   56.3880   78.6990   28.6570 C   0  0  0  0  0  0  0  0  0  0  0  0
   56.0670   77.5730   29.4260 C   0  0  0  0  0  0  0  0  0  0  0  0
   54.8500   76.9150   29.2330 C   0  0  0  0  0  0  0  0  0  0  0  0
   53.9480   77.3850   28.2810 C   0  0  0  0  0  0  0  0  0  0  0  0
   54.2520   78.5170   27.5240 C   0  0  0  0  0  0  0  0  0  0  0  0
   55.4680   79.1780   27.7120 C   0  0  0  0  0  0  0  0  0  0  0  0
   56.9330   80.2740   30.6020 H   0  0  0  0  0  0  0  0  0  0  0  0
   61.0026   83.1685   29.6931 H   0  0  0  0  0  0  0  0  0  0  0  0
   59.7574   80.9618   34.3353 H   0  0  0  0  0  0  0  0  0  0  0  0
   60.8938   79.6951   33.6340 H   0  0  0  0  0  0  0  0  0  0  0  0
   60.5347   79.8944   36.4301 H   0  0  0  0  0  0  0  0  0  0  0  0
   62.1010   79.2312   36.0227 H   0  0  0  0  0  0  0  0  0  0  0  0
   61.5228   79.9337   38.5895 H   0  0  0  0  0  0  0  0  0  0  0  0
   63.1451   80.2377   37.9915 H   0  0  0  0  0  0  0  0  0  0  0  0
   60.7970   82.1736   38.3064 H   0  0  0  0  0  0  0  0  0  0  0  0
   62.4917   82.5017   38.6166 H   0  0  0  0  0  0  0  0  0  0  0  0
   63.8707   81.2668   34.3772 H   0  0  0  0  0  0  0  0  0  0  0  0
   63.0062   80.1170   33.2486 H   0  0  0  0  0  0  0  0  0  0  0  0
   64.2141   82.7095   32.7040 H   0  0  0  0  0  0  0  0  0  0  0  0
   63.6127   81.4101   31.5838 H   0  0  0  0  0  0  0  0  0  0  0  0
   61.8663   83.4972   32.9387 H   0  0  0  0  0  0  0  0  0  0  0  0
   62.5050   83.5607   31.2236 H   0  0  0  0  0  0  0  0  0  0  0  0
   56.7750   77.2061   30.1837 H   0  0  0  0  0  0  0  0  0  0  0  0
   54.6040   76.0261   29.8325 H   0  0  0  0  0  0  0  0  0  0  0  0
   52.9929   76.8619   28.1256 H   0  0  0  0  0  0  0  0  0  0  0  0
   53.5336   78.8891   26.7787 H   0  0  0  0  0  0  0  0  0  0  0  0
   55.7044   80.0740   27.1193 H   0  0  0  0  0  0  0  0  0  0  0  0
  1  2  2  0
  2  3  1  0
  3  4  1  0
  4  5  2  0
  5  6  1  0
  6  7  2  0
  7  8  1  0
  8  9  2  0
  8 10  1  0
 10 11  1  0
 11 12  1  0
 12 13  1  0
 13 14  1  0
 14 15  1  0
 15 16  1  0
 16 17  2  0
 11 18  1  0
 18 19  1  0
 19 20  1  0
  2 21  1  0
 21 22  2  0
 22 23  1  0
 23 24  2  0
 24 25  1  0
 25 26  2  0
  9  4  1  0
 16 12  1  0
 26 21  1  0
 20  7  1  0
  3 27  1  0
  6 28  1  0
 10 29  1  0
 10 30  1  0
 13 31  1  0
 13 32  1  0
 14 33  1  0
 14 34  1  0
 15 35  1  0
 15 36  1  0
 18 37  1  0
 18 38  1  0
 19 39  1  0
 19 40  1  0
 20 41  1  0
 20 42  1  0
 22 43  1  0
 23 44  1  0
 24 45  1  0
 25 46  1  0
 26 47  1  0
M  END
>  <meeko>  (1) 
{"is_sidechain": false}

>  <smiles>  (1) 
O=C(Nc1ncc2c(n1)CN(N1CCCC1=O)CCC2)c1ccccc1

>  <vina_score>  (1) 
-6.163

>  <job_id>  (1) 
9098f307baba8fe5

$$$$
