
     RDKit          3D

 39 40  0  0  0  0  0  0  0  0999 V2000
   55.8230   77.4540   29.4760 C   0  0  0  0  0  0  0  0  0  0  0  0
   56.6020   78.4150   28.5650 C   0  0  0  0  0  0  0  0  0  0  0  0
   57.5660   79.3590   29.2820 C   0  0  0  0  0  0  0  0  0  0  0  0
   57.4720   79.4820   30.6830 C   0  0  0  0  0  0  0  0  0  0  0  0
   58.3350   80.3180   31.3930 C   0  0  0  0  0  0  0  0  0  0  0  0
   59.3000   81.0510   30.7030 C   0  0  0  0  0  0  0  0  0  0  0  0
   60.4090   82.1090   31.6010 S   0  0  0  0  0  0  0  0  0  0  0  0
   59.3440   83.3960   32.1970 C   0  0  0  0  0  0  0  0  0  0  0  0
   60.8980   81.3620   32.7440 O   0  0  0  0  0  0  0  0  0  0  0  0
   61.3290   82.6930   30.6450 O   0  0  0  0  0  0  0  0  0  0  0  0
   59.4270   80.9330   29.3180 C   0  0  0  0  0  0  0  0  0  0  0  0
   58.5600   80.0930   28.6140 C   0  0  0  0  0  0  0  0  0  0  0  0
   55.6300   79.1510   27.6450 C   0  0  0  0  0  0  0  0  0  0  0  0
   56.0520   80.2300   26.8500 C   0  0  0  0  0  0  0  0  0  0  0  0
   55.1530   80.8940   26.0130 C   0  0  0  0  0  0  0  0  0  0  0  0
   53.8180   80.4870   25.9800 C   0  0  0  0  0  0  0  0  0  0  0  0
   52.6660   81.3190   24.9200 S   0  0  0  0  0  0  0  0  0  0  0  0
   53.3100   80.9850   23.4000 N   0  0  0  0  0  0  0  0  0  0  0  0
   52.7770   82.7400   25.1470 O   0  0  0  0  0  0  0  0  0  0  0  0
   51.4040   80.6170   24.9680 O   0  0  0  0  0  0  0  0  0  0  0  0
   53.3790   79.4130   26.7580 C   0  0  0  0  0  0  0  0  0  0  0  0
   54.2840   78.7530   27.5900 C   0  0  0  0  0  0  0  0  0  0  0  0
   56.0243   77.7024   30.5285 H   0  0  0  0  0  0  0  0  0  0  0  0
   54.7457   77.5514   29.2759 H   0  0  0  0  0  0  0  0  0  0  0  0
   56.1412   76.4202   29.2759 H   0  0  0  0  0  0  0  0  0  0  0  0
   57.2763   77.7911   27.9599 H   0  0  0  0  0  0  0  0  0  0  0  0
   56.7055   78.9094   31.2259 H   0  0  0  0  0  0  0  0  0  0  0  0
   58.2547   80.3980   32.4871 H   0  0  0  0  0  0  0  0  0  0  0  0
   59.3460   83.3936   33.2970 H   0  0  0  0  0  0  0  0  0  0  0  0
   59.7047   84.3689   31.8318 H   0  0  0  0  0  0  0  0  0  0  0  0
   58.3208   83.2237   31.8318 H   0  0  0  0  0  0  0  0  0  0  0  0
   60.2051   81.4980   28.7837 H   0  0  0  0  0  0  0  0  0  0  0  0
   58.6573   80.0054   27.5218 H   0  0  0  0  0  0  0  0  0  0  0  0
   57.1022   80.5552   26.8874 H   0  0  0  0  0  0  0  0  0  0  0  0
   55.4937   81.7305   25.3851 H   0  0  0  0  0  0  0  0  0  0  0  0
   53.4240   81.8170   22.8210 H   0  0  0  0  0  0  0  0  0  0  0  0
   54.1910   80.4820   23.5210 H   0  0  0  0  0  0  0  0  0  0  0  0
   52.3283   79.0902   26.7150 H   0  0  0  0  0  0  0  0  0  0  0  0
   53.9397   77.9118   28.2096 H   0  0  0  0  0  0  0  0  0  0  0  0
  1  2  1  0
  2  3  1  0
  3  4  1  0
  4  5  2  0
  5  6  1  0
  6  7  1  0
  7  8  1  0
  7  9  2  0
  7 10  2  0
  6 11  2  0
 11 12  1  0
  2 13  1  0
 13 14  1  0
 14 15  2  0
 15 16  1  0
 16 17  1  0
 17 18  1  0
 17 19  2  0
 17 20  2  0
 16 21  2  0
 21 22  1  0
 12  3  2  0
 22 13  2  0
  1 23  1  0
  1 24  1  0
  1 25  1  0
  2 26  1  0
  4 27  1  0
  5 28  1  0
  8 29  1  0
  8 30  1  0
  8 31  1  0
 11 32  1  0
 12 33  1  0
 14 34  1  0
 15 35  1  0
 18 36  1  0
 18 37  1  0
 21 38  1  0
 22 39  1  0
M  END
>  <meeko>  (1) 
{"is_sidechain": false}

>  <smiles>  (1) 
CC(c1ccc(S(C)(=O)=O)cc1)c1ccc(S(N)(=O)=O)cc1

>  <vina_score>  (1) 
-8.472

>  <job_id>  (1) 
90ad5f34b7e785d3

$$$$
