
     RDKit          3D

 38 39  0  0  0  0  0  0  0  0999 V2000
   52.9350   81.3560   22.5170 C   0  0  0  0  0  0  0  0  0  0  0  0
   52.4420   80.2640   23.8250 S   0  0  0  0  0  0  0  0  0  0  0  0
   51.2110   80.7790   24.3940 O   0  0  0  0  0  0  0  0  0  0  0  0
   52.5240   78.9010   23.3380 O   0  0  0  0  0  0  0  0  0  0  0  0
   53.7240   80.4730   25.0370 C   0  0  0  0  0  0  0  0  0  0  0  0
   53.9900   79.4410   25.9370 C   0  0  0  0  0  0  0  0  0  0  0  0
   54.9950   79.6020   26.8970 C   0  0  0  0  0  0  0  0  0  0  0  0
   55.7260   80.7910   26.9680 C   0  0  0  0  0  0  0  0  0  0  0  0
   56.7480   81.0310   27.9130 N   0  0  0  0  0  0  0  0  0  0  0  0
   57.8170   80.2070   28.2140 C   0  0  0  0  0  0  0  0  0  0  0  0
   58.1200   79.1640   27.6460 O   0  0  0  0  0  0  0  0  0  0  0  0
   58.7020   80.6930   29.3130 C   0  0  0  0  0  0  0  0  0  0  0  0
   58.5090   80.1750   30.6030 C   0  0  0  0  0  0  0  0  0  0  0  0
   59.3080   80.6060   31.6630 C   0  0  0  0  0  0  0  0  0  0  0  0
   60.3050   81.5580   31.4300 C   0  0  0  0  0  0  0  0  0  0  0  0
   61.3040   82.1240   32.7880 S   0  0  0  0  0  0  0  0  0  0  0  0
   60.2240   83.2340   33.6530 C   0  0  0  0  0  0  0  0  0  0  0  0
   61.5570   80.9850   33.6490 O   0  0  0  0  0  0  0  0  0  0  0  0
   62.3970   82.8960   32.2280 O   0  0  0  0  0  0  0  0  0  0  0  0
   60.4860   82.1060   30.1560 C   0  0  0  0  0  0  0  0  0  0  0  0
   59.6820   81.6730   29.0970 C   0  0  0  0  0  0  0  0  0  0  0  0
   55.4290   81.8280   26.0710 C   0  0  0  0  0  0  0  0  0  0  0  0
   54.4300   81.6740   25.1060 C   0  0  0  0  0  0  0  0  0  0  0  0
   53.3516   82.2787   22.9471 H   0  0  0  0  0  0  0  0  0  0  0  0
   53.6982   80.8637   21.8964 H   0  0  0  0  0  0  0  0  0  0  0  0
   52.0610   81.6028   21.8964 H   0  0  0  0  0  0  0  0  0  0  0  0
   53.4128   78.5057   25.8922 H   0  0  0  0  0  0  0  0  0  0  0  0
   55.2116   78.7858   27.6019 H   0  0  0  0  0  0  0  0  0  0  0  0
   56.7230   81.9360   28.3630 H   0  0  0  0  0  0  0  0  0  0  0  0
   57.7237   79.4252   30.7796 H   0  0  0  0  0  0  0  0  0  0  0  0
   59.1545   80.1999   32.6737 H   0  0  0  0  0  0  0  0  0  0  0  0
   60.3534   83.1010   34.7372 H   0  0  0  0  0  0  0  0  0  0  0  0
   60.4682   84.2710   33.3791 H   0  0  0  0  0  0  0  0  0  0  0  0
   59.1807   83.0183   33.3791 H   0  0  0  0  0  0  0  0  0  0  0  0
   61.2563   82.8731   29.9881 H   0  0  0  0  0  0  0  0  0  0  0  0
   59.8183   82.1015   28.0931 H   0  0  0  0  0  0  0  0  0  0  0  0
   55.9889   82.7731   26.1279 H   0  0  0  0  0  0  0  0  0  0  0  0
   54.2025   82.4925   24.4072 H   0  0  0  0  0  0  0  0  0  0  0  0
  1  2  1  0
  2  3  2  0
  2  4  2  0
  2  5  1  0
  5  6  1  0
  6  7  2  0
  7  8  1  0
  8  9  1  0
  9 10  1  0
 10 11  2  0
 10 12  1  0
 12 13  1  0
 13 14  2  0
 14 15  1  0
 15 16  1  0
 16 17  1  0
 16 18  2  0
 16 19  2  0
 15 20  2  0
 20 21  1  0
  8 22  2  0
 22 23  1  0
 23  5  2  0
 21 12  2  0
  1 24  1  0
  1 25  1  0
  1 26  1  0
  6 27  1  0
  7 28  1  0
  9 29  1  0
 13 30  1  0
 14 31  1  0
 17 32  1  0
 17 33  1  0
 17 34  1  0
 20 35  1  0
 21 36  1  0
 22 37  1  0
 23 38  1  0
M  END
>  <meeko>  (1) 
{"is_sidechain": false}

>  <smiles>  (1) 
CS(=O)(=O)c1ccc(NC(=O)c2ccc(S(C)(=O)=O)cc2)cc1

>  <vina_score>  (1) 
-7.275

>  <job_id>  (1) 
90af26d1a4d892f9

$$$$
