
     RDKit          3D

 40 41  0  0  0  0  0  0  0  0999 V2000
   52.1850   75.3570   26.8140 C   0  0  0  0  0  0  0  0  0  0  0  0
   52.6300   75.5530   28.1500 O   0  0  0  0  0  0  0  0  0  0  0  0
   53.6850   76.4020   28.3360 C   0  0  0  0  0  0  0  0  0  0  0  0
   54.7980   76.1650   29.1450 C   0  0  0  0  0  0  0  0  0  0  0  0
   55.8140   77.1230   29.2460 C   0  0  0  0  0  0  0  0  0  0  0  0
   55.7250   78.3230   28.5280 C   0  0  0  0  0  0  0  0  0  0  0  0
   56.7830   79.3690   28.6100 C   0  0  0  0  0  0  0  0  0  0  0  0
   56.9320   80.1180   27.6530 O   0  0  0  0  0  0  0  0  0  0  0  0
   57.5210   79.3550   29.7800 N   0  0  0  0  0  0  0  0  0  0  0  0
   58.5600   80.2350   30.1470 C   0  0  0  0  0  0  0  0  0  0  0  0
   59.4080   80.8660   29.2340 C   0  0  0  0  0  0  0  0  0  0  0  0
   60.4150   81.7320   29.6770 C   0  0  0  0  0  0  0  0  0  0  0  0
   60.5650   81.9870   31.0430 C   0  0  0  0  0  0  0  0  0  0  0  0
   61.6410   82.8760   31.5420 C   0  0  0  0  0  0  0  0  0  0  0  0
   62.6630   82.3410   31.9680 O   0  0  0  0  0  0  0  0  0  0  0  0
   61.4600   84.2580   31.4960 N   0  0  0  0  0  0  0  0  0  0  0  0
   62.5900   85.1080   31.8250 C   0  0  0  0  0  0  0  0  0  0  0  0
   60.1670   84.9200   31.3980 C   0  0  0  0  0  0  0  0  0  0  0  0
   59.7390   81.3440   31.9660 C   0  0  0  0  0  0  0  0  0  0  0  0
   58.7370   80.4780   31.5160 C   0  0  0  0  0  0  0  0  0  0  0  0
   54.6010   78.5700   27.7340 C   0  0  0  0  0  0  0  0  0  0  0  0
   53.5920   77.6090   27.6360 C   0  0  0  0  0  0  0  0  0  0  0  0
   51.1784   74.9136   26.8241 H   0  0  0  0  0  0  0  0  0  0  0  0
   52.1541   76.3248   26.2921 H   0  0  0  0  0  0  0  0  0  0  0  0
   52.8782   74.6809   26.2921 H   0  0  0  0  0  0  0  0  0  0  0  0
   54.8770   75.2217   29.7053 H   0  0  0  0  0  0  0  0  0  0  0  0
   56.6847   76.9331   29.8909 H   0  0  0  0  0  0  0  0  0  0  0  0
   57.3480   78.5930   30.4210 H   0  0  0  0  0  0  0  0  0  0  0  0
   59.2835   80.6808   28.1569 H   0  0  0  0  0  0  0  0  0  0  0  0
   61.0876   82.2114   28.9505 H   0  0  0  0  0  0  0  0  0  0  0  0
   62.6876   85.1814   32.9182 H   0  0  0  0  0  0  0  0  0  0  0  0
   63.5092   84.6756   31.4030 H   0  0  0  0  0  0  0  0  0  0  0  0
   62.4294   86.1111   31.4030 H   0  0  0  0  0  0  0  0  0  0  0  0
   59.7792   85.1185   32.4081 H   0  0  0  0  0  0  0  0  0  0  0  0
   60.2817   85.8703   30.8560 H   0  0  0  0  0  0  0  0  0  0  0  0
   59.4631   84.2714   30.8560 H   0  0  0  0  0  0  0  0  0  0  0  0
   59.8755   81.5176   33.0436 H   0  0  0  0  0  0  0  0  0  0  0  0
   58.0800   79.9816   32.2453 H   0  0  0  0  0  0  0  0  0  0  0  0
   54.5114   79.5202   27.1870 H   0  0  0  0  0  0  0  0  0  0  0  0
   52.7149   77.8038   27.0014 H   0  0  0  0  0  0  0  0  0  0  0  0
  1  2  1  0
  2  3  1  0
  3  4  1  0
  4  5  2  0
  5  6  1  0
  6  7  1  0
  7  8  2  0
  7  9  1  0
  9 10  1  0
 10 11  1  0
 11 12  2  0
 12 13  1  0
 13 14  1  0
 14 15  2  0
 14 16  1  0
 16 17  1  0
 16 18  1  0
 13 19  2  0
 19 20  1  0
  6 21  2  0
 21 22  1  0
 22  3  2  0
 20 10  2  0
  1 23  1  0
  1 24  1  0
  1 25  1  0
  4 26  1  0
  5 27  1  0
  9 28  1  0
 11 29  1  0
 12 30  1  0
 17 31  1  0
 17 32  1  0
 17 33  1  0
 18 34  1  0
 18 35  1  0
 18 36  1  0
 19 37  1  0
 20 38  1  0
 21 39  1  0
 22 40  1  0
M  END
>  <meeko>  (1) 
{"is_sidechain": false}

>  <smiles>  (1) 
COc1ccc(C(=O)Nc2ccc(C(=O)N(C)C)cc2)cc1

>  <vina_score>  (1) 
-7.533

>  <job_id>  (1) 
9101b8e5e3b07847

$$$$
