
     RDKit          3D

 60 62  0  0  0  0  0  0  0  0999 V2000
   61.3680   85.2220   31.4150 C   0  0  0  0  0  0  0  0  0  0  0  0
   61.1400   83.7260   31.5950 C   0  0  2  0  0  0  0  0  0  0  0  0
   59.5290   83.3520   32.2750 S   0  0  0  0  0  0  0  0  0  0  0  0
   58.5280   84.4860   31.9700 N   0  0  0  0  0  0  0  0  0  0  0  0
   59.6870   82.7860   33.6030 O   0  0  0  0  0  0  0  0  0  0  0  0
   59.0100   81.9740   31.2470 C   0  0  0  0  0  0  0  0  0  0  0  0
   59.3210   81.9490   29.8880 C   0  0  0  0  0  0  0  0  0  0  0  0
   58.9130   80.8630   29.1030 C   0  0  0  0  0  0  0  0  0  0  0  0
   58.1830   79.8010   29.6500 C   0  0  0  0  0  0  0  0  0  0  0  0
   57.7620   78.6860   28.9180 N   0  0  0  0  0  0  0  0  0  0  0  0
   56.5280   78.0850   28.6930 C   0  0  0  0  0  0  0  0  0  0  0  0
   56.2410   76.8540   29.1380 N   0  0  0  0  0  0  0  0  0  0  0  0
   55.0140   76.3640   28.8770 C   0  0  0  0  0  0  0  0  0  0  0  0
   54.0520   77.0530   28.1860 C   0  0  0  0  0  0  0  0  0  0  0  0
   52.7090   76.4930   27.9140 C   0  0  0  0  0  0  0  0  0  0  0  0
   51.6990   77.2360   28.4440 F   0  0  0  0  0  0  0  0  0  0  0  0
   52.5470   75.2290   28.3920 F   0  0  0  0  0  0  0  0  0  0  0  0
   52.4320   76.4110   26.5790 F   0  0  0  0  0  0  0  0  0  0  0  0
   54.4330   78.3020   27.7720 C   0  0  0  0  0  0  0  0  0  0  0  0
   53.5020   79.0420   27.0750 O   0  0  0  0  0  0  0  0  0  0  0  0
   54.0080   80.1250   26.2790 C   0  0  2  0  0  0  0  0  0  0  0  0
   53.5900   81.4620   26.8940 C   0  0  0  0  0  0  0  0  0  0  0  0
   53.4700   79.9390   24.8380 C   0  0  1  0  0  0  0  0  0  0  0  0
   53.6810   78.5390   24.2710 C   0  0  0  0  0  0  0  0  0  0  0  0
   52.0740   80.2350   24.7740 O   0  0  0  0  0  0  0  0  0  0  0  0
   55.6500   78.8310   28.0090 N   0  0  0  0  0  0  0  0  0  0  0  0
   57.8760   79.8570   31.0210 C   0  0  0  0  0  0  0  0  0  0  0  0
   58.2780   80.9330   31.8180 C   0  0  0  0  0  0  0  0  0  0  0  0
   62.4070   82.9540   32.5820 S   0  0  0  0  0  0  0  0  0  0  0  0
   62.0750   81.4520   32.7260 N   0  0  0  0  0  0  0  0  0  0  0  0
   62.7420   83.8280   33.6860 O   0  0  0  0  0  0  0  0  0  0  0  0
   63.8970   83.0510   31.5090 C   0  0  0  0  0  0  0  0  0  0  0  0
   65.1550   82.4850   32.1070 C   0  0  0  0  0  0  0  0  0  0  0  0
   64.4320   81.7320   31.0200 C   0  0  0  0  0  0  0  0  0  0  0  0
   61.4413   85.7030   32.4015 H   0  0  0  0  0  0  0  0  0  0  0  0
   62.3015   85.3861   30.8568 H   0  0  0  0  0  0  0  0  0  0  0  0
   60.5257   85.6567   30.8568 H   0  0  0  0  0  0  0  0  0  0  0  0
   61.1901   83.3041   30.5803 H   0  0  0  0  0  0  0  0  0  0  0  0
   57.6160   84.2800   32.3880 H   0  0  0  0  0  0  0  0  0  0  0  0
   59.8840   82.7781   29.4345 H   0  0  0  0  0  0  0  0  0  0  0  0
   59.1717   80.8442   28.0340 H   0  0  0  0  0  0  0  0  0  0  0  0
   58.4800   78.1410   28.4620 H   0  0  0  0  0  0  0  0  0  0  0  0
   54.7704   75.3542   29.2388 H   0  0  0  0  0  0  0  0  0  0  0  0
   55.1076   80.1252   26.2494 H   0  0  0  0  0  0  0  0  0  0  0  0
   53.6142   81.3845   27.9910 H   0  0  0  0  0  0  0  0  0  0  0  0
   54.2848   82.2494   26.5666 H   0  0  0  0  0  0  0  0  0  0  0  0
   52.5704   81.7134   26.5666 H   0  0  0  0  0  0  0  0  0  0  0  0
   54.0551   80.6420   24.2269 H   0  0  0  0  0  0  0  0  0  0  0  0
   53.7892   77.8212   25.0974 H   0  0  0  0  0  0  0  0  0  0  0  0
   52.8149   78.2592   23.6533 H   0  0  0  0  0  0  0  0  0  0  0  0
   54.5911   78.5269   23.6533 H   0  0  0  0  0  0  0  0  0  0  0  0
   51.8820   80.5530   23.8750 H   0  0  0  0  0  0  0  0  0  0  0  0
   57.3058   79.0345   31.4774 H   0  0  0  0  0  0  0  0  0  0  0  0
   58.0191   80.9584   32.8868 H   0  0  0  0  0  0  0  0  0  0  0  0
   61.2730   81.3310   33.3600 H   0  0  0  0  0  0  0  0  0  0  0  0
   63.6189   84.0019   31.0310 H   0  0  0  0  0  0  0  0  0  0  0  0
   66.1254   82.9582   31.8963 H   0  0  0  0  0  0  0  0  0  0  0  0
   65.4927   82.2462   33.1263 H   0  0  0  0  0  0  0  0  0  0  0  0
   64.8742   81.6558   30.0157 H   0  0  0  0  0  0  0  0  0  0  0  0
   64.0229   80.7162   30.9165 H   0  0  0  0  0  0  0  0  0  0  0  0
  1  2  1  0
  2  3  1  0
  3  4  2  0
  3  5  2  0
  3  6  1  0
  6  7  1  0
  7  8  2  0
  8  9  1  0
  9 10  1  0
 10 11  1  0
 11 12  2  0
 12 13  1  0
 13 14  2  0
 14 15  1  0
 15 16  1  0
 15 17  1  0
 15 18  1  0
 14 19  1  0
 19 20  1  0
 20 21  1  0
 21 22  1  0
 21 23  1  0
 23 24  1  0
 23 25  1  0
 19 26  2  0
  9 27  2  0
 27 28  1  0
  2 29  1  0
 29 30  2  0
 29 31  2  0
 29 32  1  0
 32 33  1  0
 33 34  1  0
 28  6  2  0
 34 32  1  0
 26 11  1  0
  1 35  1  0
  1 36  1  0
  1 37  1  0
  2 38  1  6
  4 39  1  0
  7 40  1  0
  8 41  1  0
 10 42  1  0
 13 43  1  0
 21 44  1  6
 22 45  1  0
 22 46  1  0
 22 47  1  0
 23 48  1  6
 24 49  1  0
 24 50  1  0
 24 51  1  0
 25 52  1  0
 27 53  1  0
 28 54  1  0
 30 55  1  0
 32 56  1  0
 33 57  1  0
 33 58  1  0
 34 59  1  0
 34 60  1  0
M  END
>  <meeko>  (1) 
{"is_sidechain": false}

>  <smiles>  (1) 
C[C@H](S(=N)(=O)c1ccc(Nc2ncc(C(F)(F)F)c(O[C@H](C)[C@@H](C)O)n2)cc1)S(=N)(=O)C1CC1

>  <vina_score>  (1) 
-8.511

>  <job_id>  (1) 
9109caf2a5e9cff6

$$$$
