
     RDKit          3D

 57 62  0  0  0  0  0  0  0  0999 V2000
   57.8100   85.7820   31.9870 N   0  0  0  0  0  0  0  0  0  0  0  0
   59.1160   85.5910   31.7280 C   0  0  0  0  0  0  0  0  0  0  0  0
   59.9660   86.6630   31.6340 N   0  0  0  0  0  0  0  0  0  0  0  0
   61.2550   86.2420   31.3900 C   0  0  0  0  0  0  0  0  0  0  0  0
   62.4370   86.9720   31.2330 C   0  0  0  0  0  0  0  0  0  0  0  0
   63.6120   86.2520   30.9790 C   0  0  0  0  0  0  0  0  0  0  0  0
   63.6180   84.8540   30.8800 C   0  0  0  0  0  0  0  0  0  0  0  0
   64.8410   84.1230   30.6030 C   0  0  0  0  0  0  0  0  0  0  0  0
   65.9850   84.3540   29.8700 C   0  0  0  0  0  0  0  0  0  0  0  0
   66.8100   83.2590   29.9150 N   0  0  0  0  0  0  0  0  0  0  0  0
   66.1510   82.4130   30.6740 C   0  0  0  0  0  0  0  0  0  0  0  0
   64.9510   82.8650   31.1360 O   0  0  0  0  0  0  0  0  0  0  0  0
   62.4140   84.1520   31.0520 C   0  0  0  0  0  0  0  0  0  0  0  0
   61.2170   84.8510   31.3140 C   0  0  0  0  0  0  0  0  0  0  0  0
   59.8640   84.4480   31.5350 C   0  0  0  0  0  0  0  0  0  0  0  0
   59.3410   83.0980   31.5800 C   0  0  0  0  0  0  0  0  0  0  0  0
   58.9200   82.5440   32.7910 C   0  0  0  0  0  0  0  0  0  0  0  0
   58.3100   81.2840   32.8350 C   0  0  0  0  0  0  0  0  0  0  0  0
   58.1210   80.6130   31.6210 C   0  0  0  0  0  0  0  0  0  0  0  0
   57.5360   79.3910   31.3620 N   0  0  0  0  0  0  0  0  0  0  0  0
   57.5640   79.1190   30.0200 C   0  0  0  0  0  0  0  0  0  0  0  0
   57.0660   77.9780   29.5620 O   0  0  0  0  0  0  0  0  0  0  0  0
   58.1600   80.1930   29.4010 C   0  0  0  0  0  0  0  0  0  0  0  0
   58.4200   80.2570   28.0260 N   0  0  0  0  0  0  0  0  0  0  0  0
   57.4670   80.1970   27.2140 N   0  0  0  0  0  0  0  0  0  0  0  0
   56.1960   79.8570   27.7110 O   0  0  0  0  0  0  0  0  0  0  0  0
   55.2280   80.1570   26.7790 C   0  0  0  0  0  0  0  0  0  0  0  0
   54.9860   81.4510   26.3050 C   0  0  0  0  0  0  0  0  0  0  0  0
   53.9600   81.6800   25.3860 C   0  0  0  0  0  0  0  0  0  0  0  0
   53.1640   80.6130   24.9580 C   0  0  0  0  0  0  0  0  0  0  0  0
   51.8840   80.9180   23.7680 S   0  0  0  0  0  0  0  0  0  0  0  0
   51.8520   79.4760   22.9090 N   0  0  0  0  0  0  0  0  0  0  0  0
   50.6250   80.9920   24.4730 O   0  0  0  0  0  0  0  0  0  0  0  0
   52.3260   81.9480   22.8580 O   0  0  0  0  0  0  0  0  0  0  0  0
   53.3970   79.3190   25.4290 C   0  0  0  0  0  0  0  0  0  0  0  0
   54.4240   79.0970   26.3510 C   0  0  0  0  0  0  0  0  0  0  0  0
   58.5380   81.1380   30.3940 C   0  0  0  0  0  0  0  0  0  0  0  0
   59.1770   82.3940   30.3800 C   0  0  0  0  0  0  0  0  0  0  0  0
   57.1180   85.5160   31.2880 H   0  0  0  0  0  0  0  0  0  0  0  0
   57.4690   86.4710   32.6500 H   0  0  0  0  0  0  0  0  0  0  0  0
   59.6900   87.6250   31.7520 H   0  0  0  0  0  0  0  0  0  0  0  0
   62.4443   88.0695   31.3061 H   0  0  0  0  0  0  0  0  0  0  0  0
   64.5574   86.8001   30.8536 H   0  0  0  0  0  0  0  0  0  0  0  0
   66.2053   85.2844   29.3261 H   0  0  0  0  0  0  0  0  0  0  0  0
   66.5392   81.4133   30.9187 H   0  0  0  0  0  0  0  0  0  0  0  0
   62.4042   83.0543   30.9823 H   0  0  0  0  0  0  0  0  0  0  0  0
   59.0698   83.1060   33.7247 H   0  0  0  0  0  0  0  0  0  0  0  0
   57.9911   80.8380   33.7886 H   0  0  0  0  0  0  0  0  0  0  0  0
   57.1420   78.7720   32.0550 H   0  0  0  0  0  0  0  0  0  0  0  0
   56.0940   78.0630   29.6070 H   0  0  0  0  0  0  0  0  0  0  0  0
   55.6051   82.2894   26.6569 H   0  0  0  0  0  0  0  0  0  0  0  0
   53.7789   82.6943   25.0008 H   0  0  0  0  0  0  0  0  0  0  0  0
   51.3180   78.7340   23.3640 H   0  0  0  0  0  0  0  0  0  0  0  0
   51.5720   79.6470   21.9440 H   0  0  0  0  0  0  0  0  0  0  0  0
   52.7772   78.4811   25.0772 H   0  0  0  0  0  0  0  0  0  0  0  0
   54.6001   78.0838   26.7413 H   0  0  0  0  0  0  0  0  0  0  0  0
   59.5442   82.8184   29.4339 H   0  0  0  0  0  0  0  0  0  0  0  0
  1  2  1  0
  2  3  1  0
  3  4  1  0
  4  5  2  0
  5  6  1  0
  6  7  2  0
  7  8  1  0
  8  9  2  0
  9 10  1  0
 10 11  2  0
 11 12  1  0
  7 13  1  0
 13 14  2  0
 14 15  1  0
 15 16  1  0
 16 17  2  0
 17 18  1  0
 18 19  2  0
 19 20  1  0
 20 21  1  0
 21 22  1  0
 21 23  2  0
 23 24  1  0
 24 25  2  3
 25 26  1  0
 26 27  1  0
 27 28  1  0
 28 29  2  0
 29 30  1  0
 30 31  1  0
 31 32  1  0
 31 33  2  0
 31 34  2  0
 30 35  2  0
 35 36  1  0
 23 37  1  0
 37 38  2  0
 15  2  2  0
 38 16  1  0
 14  4  1  0
 37 19  1  0
 12  8  1  0
 36 27  2  0
  1 39  1  0
  1 40  1  0
  3 41  1  0
  5 42  1  0
  6 43  1  0
  9 44  1  0
 11 45  1  0
 13 46  1  0
 17 47  1  0
 18 48  1  0
 20 49  1  0
 22 50  1  0
 28 51  1  0
 29 52  1  0
 32 53  1  0
 32 54  1  0
 35 55  1  0
 36 56  1  0
 38 57  1  0
M  END
>  <meeko>  (1) 
{"is_sidechain": false}

>  <smiles>  (1) 
Nc1[nH]c2ccc(-c3cnco3)cc2c1-c1ccc2[nH]c(O)c(N=NOc3ccc(S(N)(=O)=O)cc3)c2c1

>  <vina_score>  (1) 
-8.273

>  <job_id>  (1) 
9133fe7b86aba76d

$$$$
