
     RDKit          3D

 40 43  0  0  0  0  0  0  0  0999 V2000
   52.6070   77.5080   27.5630 F   0  0  0  0  0  0  0  0  0  0  0  0
   53.3290   78.4640   26.9070 C   0  0  0  0  0  0  0  0  0  0  0  0
   53.3680   78.0490   25.6090 F   0  0  0  0  0  0  0  0  0  0  0  0
   52.5600   79.5850   26.9080 F   0  0  0  0  0  0  0  0  0  0  0  0
   54.6750   78.6710   27.4920 C   0  0  0  0  0  0  0  0  0  0  0  0
   55.0720   77.9750   28.6090 C   0  0  0  0  0  0  0  0  0  0  0  0
   56.2710   78.1230   29.1970 N   0  0  0  0  0  0  0  0  0  0  0  0
   57.1210   78.9950   28.6470 C   0  0  0  0  0  0  0  0  0  0  0  0
   58.3890   79.2280   29.1670 N   0  0  0  0  0  0  0  0  0  0  0  0
   58.9360   80.2120   30.0020 C   0  0  0  0  0  0  0  0  0  0  0  0
   59.6850   81.2460   29.4050 C   0  0  0  0  0  0  0  0  0  0  0  0
   60.2690   82.2870   30.1420 C   0  0  0  0  0  0  0  0  0  0  0  0
   60.0710   82.2560   31.5190 C   0  0  0  0  0  0  0  0  0  0  0  0
   60.4790   83.0820   32.5340 N   0  0  0  0  0  0  0  0  0  0  0  0
   59.9950   82.5780   33.7090 C   0  0  0  0  0  0  0  0  0  0  0  0
   59.3000   81.4810   33.5150 N   0  0  0  0  0  0  0  0  0  0  0  0
   59.3370   81.2630   32.1580 C   0  0  0  0  0  0  0  0  0  0  0  0
   58.7630   80.2320   31.3950 C   0  0  0  0  0  0  0  0  0  0  0  0
   56.8140   79.7150   27.5580 N   0  0  0  0  0  0  0  0  0  0  0  0
   55.6150   79.5340   26.9700 C   0  0  0  0  0  0  0  0  0  0  0  0
   55.3620   80.3210   25.8310 N   0  0  0  0  0  0  0  0  0  0  0  0
   54.7140   81.5910   25.7900 C   0  0  0  0  0  0  0  0  0  0  0  0
   55.3290   82.6320   26.5180 C   0  0  0  0  0  0  0  0  0  0  0  0
   54.8150   83.9310   26.5200 C   0  0  0  0  0  0  0  0  0  0  0  0
   53.6850   84.2300   25.7700 C   0  0  0  0  0  0  0  0  0  0  0  0
   53.0820   83.2320   25.0090 C   0  0  0  0  0  0  0  0  0  0  0  0
   53.5940   81.9250   25.0010 C   0  0  0  0  0  0  0  0  0  0  0  0
   52.7710   80.8050   23.9710 Cl  0  0  0  0  0  0  0  0  0  0  0  0
   54.3662   77.2541   29.0474 H   0  0  0  0  0  0  0  0  0  0  0  0
   58.9900   78.4590   28.9060 H   0  0  0  0  0  0  0  0  0  0  0  0
   59.8175   81.2363   28.3130 H   0  0  0  0  0  0  0  0  0  0  0  0
   60.8518   83.0844   29.6577 H   0  0  0  0  0  0  0  0  0  0  0  0
   61.0390   83.9150   32.4330 H   0  0  0  0  0  0  0  0  0  0  0  0
   60.1665   83.0349   34.6948 H   0  0  0  0  0  0  0  0  0  0  0  0
   58.1788   79.4415   31.8887 H   0  0  0  0  0  0  0  0  0  0  0  0
   56.2060   80.3510   25.2620 H   0  0  0  0  0  0  0  0  0  0  0  0
   56.2372   82.4147   27.0993 H   0  0  0  0  0  0  0  0  0  0  0  0
   55.3047   84.7161   27.1149 H   0  0  0  0  0  0  0  0  0  0  0  0
   53.2692   85.2484   25.7771 H   0  0  0  0  0  0  0  0  0  0  0  0
   52.1932   83.4708   24.4065 H   0  0  0  0  0  0  0  0  0  0  0  0
  1  2  1  0
  2  3  1  0
  2  4  1  0
  2  5  1  0
  5  6  2  0
  6  7  1  0
  7  8  2  0
  8  9  1  0
  9 10  1  0
 10 11  2  0
 11 12  1  0
 12 13  2  0
 13 14  1  0
 14 15  1  0
 15 16  2  0
 16 17  1  0
 17 18  2  0
  8 19  1  0
 19 20  2  0
 20 21  1  0
 21 22  1  0
 22 23  2  0
 23 24  1  0
 24 25  2  0
 25 26  1  0
 26 27  2  0
 27 28  1  0
 20  5  1  0
 27 22  1  0
 18 10  1  0
 17 13  1  0
  6 29  1  0
  9 30  1  0
 11 31  1  0
 12 32  1  0
 14 33  1  0
 15 34  1  0
 18 35  1  0
 21 36  1  0
 23 37  1  0
 24 38  1  0
 25 39  1  0
 26 40  1  0
M  END
>  <meeko>  (1) 
{"is_sidechain": false}

>  <smiles>  (1) 
FC(F)(F)c1cnc(Nc2ccc3[nH]cnc3c2)nc1Nc1ccccc1Cl

>  <vina_score>  (1) 
-9.504

>  <job_id>  (1) 
91c08afebb1417b3

$$$$
