
     RDKit          3D

 41 44  0  0  0  0  0  0  0  0999 V2000
   49.5600   81.3570   22.0160 N   0  0  0  0  0  0  0  0  0  0  0  0
   51.1020   81.9540   21.6890 S   0  0  0  0  0  0  0  0  0  0  0  0
   50.9030   83.3200   21.2620 O   0  0  0  0  0  0  0  0  0  0  0  0
   51.7980   80.9800   20.8850 O   0  0  0  0  0  0  0  0  0  0  0  0
   51.8270   81.9680   23.3080 C   0  0  0  0  0  0  0  0  0  0  0  0
   52.5350   83.0910   23.7460 C   0  0  0  0  0  0  0  0  0  0  0  0
   53.1040   83.0870   25.0220 C   0  0  0  0  0  0  0  0  0  0  0  0
   52.9830   81.9660   25.8540 C   0  0  0  0  0  0  0  0  0  0  0  0
   53.5280   81.9940   27.1500 N   0  0  0  0  0  0  0  0  0  0  0  0
   54.6920   81.5500   27.3150 N   0  0  0  0  0  0  0  0  0  0  0  0
   55.4210   81.2220   26.1670 N   0  0  0  0  0  0  0  0  0  0  0  0
   56.3650   80.4110   26.3260 N   0  0  0  0  0  0  0  0  0  0  0  0
   56.5420   79.7480   27.5040 C   0  0  0  0  0  0  0  0  0  0  0  0
   57.5980   80.1230   28.5060 C   0  0  0  0  0  0  0  0  0  0  0  0
   58.4260   81.0110   28.4080 O   0  0  0  0  0  0  0  0  0  0  0  0
   57.4450   79.2590   29.5710 N   0  0  0  0  0  0  0  0  0  0  0  0
   56.4140   78.4130   29.3470 C   0  0  0  0  0  0  0  0  0  0  0  0
   55.9350   77.4390   30.1240 C   0  0  0  0  0  0  0  0  0  0  0  0
   54.7920   76.6550   29.6660 C   0  0  0  0  0  0  0  0  0  0  0  0
   54.1830   76.8690   28.4770 C   0  0  0  0  0  0  0  0  0  0  0  0
   53.0980   76.1430   28.0200 N   0  0  0  0  0  0  0  0  0  0  0  0
   52.4990   76.3860   26.8090 C   0  0  0  0  0  0  0  0  0  0  0  0
   52.9340   77.3520   25.9870 C   0  0  0  0  0  0  0  0  0  0  0  0
   54.0730   78.1610   26.3910 C   0  0  0  0  0  0  0  0  0  0  0  0
   54.6960   77.9600   27.5760 C   0  0  0  0  0  0  0  0  0  0  0  0
   55.8450   78.7330   28.0490 C   0  0  0  0  0  0  0  0  0  0  0  0
   52.2630   80.8510   25.4000 C   0  0  0  0  0  0  0  0  0  0  0  0
   51.6940   80.8430   24.1240 C   0  0  0  0  0  0  0  0  0  0  0  0
   49.4480   81.2700   23.0280 H   0  0  0  0  0  0  0  0  0  0  0  0
   49.3520   80.4860   21.5310 H   0  0  0  0  0  0  0  0  0  0  0  0
   52.6430   83.9692   23.0924 H   0  0  0  0  0  0  0  0  0  0  0  0
   53.6522   83.9722   25.3769 H   0  0  0  0  0  0  0  0  0  0  0  0
   58.0300   79.2890   30.3920 H   0  0  0  0  0  0  0  0  0  0  0  0
   56.3971   77.2292   31.0999 H   0  0  0  0  0  0  0  0  0  0  0  0
   54.4089   75.8548   30.3164 H   0  0  0  0  0  0  0  0  0  0  0  0
   52.7290   75.4030   28.6040 H   0  0  0  0  0  0  0  0  0  0  0  0
   51.6388   75.7716   26.5047 H   0  0  0  0  0  0  0  0  0  0  0  0
   52.4370   77.5298   25.0219 H   0  0  0  0  0  0  0  0  0  0  0  0
   54.4360   78.9530   25.7195 H   0  0  0  0  0  0  0  0  0  0  0  0
   52.1453   79.9749   26.0546 H   0  0  0  0  0  0  0  0  0  0  0  0
   51.1465   79.9588   23.7657 H   0  0  0  0  0  0  0  0  0  0  0  0
  1  2  1  0
  2  3  2  0
  2  4  2  0
  2  5  1  0
  5  6  1  0
  6  7  2  0
  7  8  1  0
  8  9  1  0
  9 10  2  3
 10 11  1  0
 11 12  2  3
 12 13  1  0
 13 14  1  0
 14 15  2  0
 14 16  1  0
 16 17  1  0
 17 18  2  0
 18 19  1  0
 19 20  2  0
 20 21  1  0
 21 22  1  0
 22 23  2  0
 23 24  1  0
 24 25  2  0
 25 26  1  0
  8 27  2  0
 27 28  1  0
 28  5  2  0
 26 13  2  0
 26 17  1  0
 25 20  1  0
  1 29  1  0
  1 30  1  0
  6 31  1  0
  7 32  1  0
 16 33  1  0
 18 34  1  0
 19 35  1  0
 21 36  1  0
 22 37  1  0
 23 38  1  0
 24 39  1  0
 27 40  1  0
 28 41  1  0
M  END
>  <meeko>  (1) 
{"is_sidechain": false}

>  <smiles>  (1) 
NS(=O)(=O)c1ccc(N=NN=Nc2c(=O)[nH]c3ccc4[nH]cccc4c23)cc1

>  <vina_score>  (1) 
-8.691

>  <job_id>  (1) 
93240de184768e41

$$$$
