
     RDKit          3D

 48 50  0  0  0  0  0  0  0  0999 V2000
   52.7180   81.7700   24.1260 C   0  0  0  0  0  0  0  0  0  0  0  0
   53.1700   80.5190   24.7870 C   0  0  0  0  0  0  0  0  0  0  0  0
   52.9490   79.3210   24.2890 N   0  0  0  0  0  0  0  0  0  0  0  0
   53.4750   78.4390   25.1820 C   0  0  0  0  0  0  0  0  0  0  0  0
   54.0320   79.0850   26.2690 C   0  0  0  0  0  0  0  0  0  0  0  0
   54.6450   78.5030   27.4620 C   0  0  0  0  0  0  0  0  0  0  0  0
   55.9350   78.8520   27.6680 N   0  0  0  0  0  0  0  0  0  0  0  0
   56.5370   78.3680   28.7620 C   0  0  0  0  0  0  0  0  0  0  0  0
   57.8560   78.7430   28.9250 N   0  0  0  0  0  0  0  0  0  0  0  0
   58.1850   80.1490   28.7610 C   0  0  0  0  0  0  0  0  0  0  0  0
   59.3790   80.5900   29.6350 C   0  0  0  0  0  0  0  0  0  0  0  0
   59.2070   80.2240   31.1190 C   0  0  0  0  0  0  0  0  0  0  0  0
   58.1850   81.1170   31.8130 C   0  0  0  0  0  0  0  0  0  0  0  0
   58.5260   82.4920   31.6580 O   0  0  0  0  0  0  0  0  0  0  0  0
   58.5610   82.9000   30.2930 C   0  0  0  0  0  0  0  0  0  0  0  0
   59.6070   82.1060   29.5200 C   0  0  0  0  0  0  0  0  0  0  0  0
   55.9360   77.5740   29.6590 N   0  0  0  0  0  0  0  0  0  0  0  0
   54.6460   77.2540   29.4250 C   0  0  0  0  0  0  0  0  0  0  0  0
   53.9450   77.7000   28.3360 C   0  0  0  0  0  0  0  0  0  0  0  0
   52.6650   77.3550   28.1520 F   0  0  0  0  0  0  0  0  0  0  0  0
   53.8800   80.4360   25.9740 N   0  0  0  0  0  0  0  0  0  0  0  0
   54.4130   81.5430   26.7710 C   0  0  0  0  0  0  0  0  0  0  0  0
   53.3100   82.4820   27.2610 C   0  0  0  0  0  0  0  0  0  0  0  0
   55.5530   82.3150   26.0990 C   0  0  0  0  0  0  0  0  0  0  0  0
   52.4496   82.5129   24.8916 H   0  0  0  0  0  0  0  0  0  0  0  0
   53.5295   82.1670   23.4985 H   0  0  0  0  0  0  0  0  0  0  0  0
   51.8401   81.5566   23.4985 H   0  0  0  0  0  0  0  0  0  0  0  0
   53.4587   77.3466   25.0542 H   0  0  0  0  0  0  0  0  0  0  0  0
   58.4310   78.0750   28.4260 H   0  0  0  0  0  0  0  0  0  0  0  0
   58.4361   80.3304   27.7055 H   0  0  0  0  0  0  0  0  0  0  0  0
   57.3087   80.7334   29.0782 H   0  0  0  0  0  0  0  0  0  0  0  0
   60.2521   80.0419   29.2511 H   0  0  0  0  0  0  0  0  0  0  0  0
   58.8718   79.1788   31.1904 H   0  0  0  0  0  0  0  0  0  0  0  0
   60.1768   80.3660   31.6184 H   0  0  0  0  0  0  0  0  0  0  0  0
   57.1929   80.9396   31.3722 H   0  0  0  0  0  0  0  0  0  0  0  0
   58.1763   80.8748   32.8860 H   0  0  0  0  0  0  0  0  0  0  0  0
   57.5727   82.7316   29.8404 H   0  0  0  0  0  0  0  0  0  0  0  0
   58.8239   83.9672   30.2496 H   0  0  0  0  0  0  0  0  0  0  0  0
   59.5586   82.3931   28.4592 H   0  0  0  0  0  0  0  0  0  0  0  0
   60.5936   82.3351   29.9492 H   0  0  0  0  0  0  0  0  0  0  0  0
   54.1311   76.6016   30.1457 H   0  0  0  0  0  0  0  0  0  0  0  0
   54.8660   81.0622   27.6506 H   0  0  0  0  0  0  0  0  0  0  0  0
   53.2986   82.4917   28.3609 H   0  0  0  0  0  0  0  0  0  0  0  0
   53.5012   83.4988   26.8873 H   0  0  0  0  0  0  0  0  0  0  0  0
   52.3368   82.1310   26.8873 H   0  0  0  0  0  0  0  0  0  0  0  0
   56.2025   82.7548   26.8702 H   0  0  0  0  0  0  0  0  0  0  0  0
   56.1411   81.6286   25.4722 H   0  0  0  0  0  0  0  0  0  0  0  0
   55.1339   83.1159   25.4722 H   0  0  0  0  0  0  0  0  0  0  0  0
  1  2  1  0
  2  3  2  0
  3  4  1  0
  4  5  2  0
  5  6  1  0
  6  7  2  0
  7  8  1  0
  8  9  1  0
  9 10  1  0
 10 11  1  0
 11 12  1  0
 12 13  1  0
 13 14  1  0
 14 15  1  0
 15 16  1  0
  8 17  2  0
 17 18  1  0
 18 19  2  0
 19 20  1  0
  5 21  1  0
 21 22  1  0
 22 23  1  0
 22 24  1  0
 21  2  1  0
 19  6  1  0
 16 11  1  0
  1 25  1  0
  1 26  1  0
  1 27  1  0
  4 28  1  0
  9 29  1  0
 10 30  1  0
 10 31  1  0
 11 32  1  0
 12 33  1  0
 12 34  1  0
 13 35  1  0
 13 36  1  0
 15 37  1  0
 15 38  1  0
 16 39  1  0
 16 40  1  0
 18 41  1  0
 22 42  1  0
 23 43  1  0
 23 44  1  0
 23 45  1  0
 24 46  1  0
 24 47  1  0
 24 48  1  0
M  END
>  <meeko>  (1) 
{"is_sidechain": false}

>  <smiles>  (1) 
Cc1ncc(-c2nc(NCC3CCOCC3)ncc2F)n1C(C)C

>  <vina_score>  (1) 
-8.080

>  <job_id>  (1) 
93c4de2af8c33cbc

$$$$
