
     RDKit          3D

 59 63  0  0  0  0  0  0  0  0999 V2000
   60.2380   80.5560   34.1940 C   0  0  0  0  0  0  0  0  0  0  0  0
   61.0200   81.6980   33.5920 C   0  0  0  0  0  0  0  0  0  0  0  0
   60.3670   82.8940   33.3720 N   0  0  0  0  0  0  0  0  0  0  0  0
   59.5240   83.0460   32.4510 N   0  0  0  0  0  0  0  0  0  0  0  0
   59.2790   82.0300   31.5120 C   0  0  0  0  0  0  0  0  0  0  0  0
   59.9700   81.9650   30.3000 C   0  0  0  0  0  0  0  0  0  0  0  0
   59.6830   80.9640   29.3670 C   0  0  0  0  0  0  0  0  0  0  0  0
   58.6680   80.0350   29.6130 C   0  0  0  0  0  0  0  0  0  0  0  0
   58.4010   79.0070   28.6910 N   0  0  0  0  0  0  0  0  0  0  0  0
   57.7660   79.2950   27.6460 N   0  0  0  0  0  0  0  0  0  0  0  0
   57.3360   80.6190   27.4990 N   0  0  0  0  0  0  0  0  0  0  0  0
   56.0980   80.8170   27.4140 N   0  0  0  0  0  0  0  0  0  0  0  0
   55.2440   79.7010   27.4360 C   0  0  0  0  0  0  0  0  0  0  0  0
   55.0520   78.9800   28.6230 C   0  0  0  0  0  0  0  0  0  0  0  0
   54.1850   77.8840   28.6580 C   0  0  0  0  0  0  0  0  0  0  0  0
   53.5020   77.5140   27.4960 C   0  0  0  0  0  0  0  0  0  0  0  0
   52.3950   76.1290   27.5210 S   0  0  0  0  0  0  0  0  0  0  0  0
   53.3100   74.9820   28.3470 N   0  0  0  0  0  0  0  0  0  0  0  0
   52.2120   75.6680   26.1670 O   0  0  0  0  0  0  0  0  0  0  0  0
   51.2870   76.4440   28.3950 O   0  0  0  0  0  0  0  0  0  0  0  0
   53.6570   78.2420   26.3130 C   0  0  0  0  0  0  0  0  0  0  0  0
   54.5270   79.3350   26.2890 C   0  0  0  0  0  0  0  0  0  0  0  0
   57.9590   80.1080   30.8160 C   0  0  0  0  0  0  0  0  0  0  0  0
   58.2510   81.1090   31.7490 C   0  0  0  0  0  0  0  0  0  0  0  0
   62.3000   81.5310   33.4300 N   0  0  0  0  0  0  0  0  0  0  0  0
   63.0190   82.6160   33.0080 C   0  0  0  0  0  0  0  0  0  0  0  0
   63.4940   82.8060   31.5870 C   0  0  0  0  0  0  0  0  0  0  0  0
   63.3170   82.0540   30.6450 O   0  0  0  0  0  0  0  0  0  0  0  0
   64.1720   84.0050   31.5590 N   0  0  0  0  0  0  0  0  0  0  0  0
   64.1970   84.5620   32.7890 C   0  0  0  0  0  0  0  0  0  0  0  0
   64.7330   85.7210   33.1800 C   0  0  0  0  0  0  0  0  0  0  0  0
   64.6240   86.1260   34.5770 C   0  0  0  0  0  0  0  0  0  0  0  0
   64.0240   85.3610   35.5180 C   0  0  0  0  0  0  0  0  0  0  0  0
   63.9230   85.7120   36.8530 N   0  0  0  0  0  0  0  0  0  0  0  0
   63.3710   84.8830   37.7970 C   0  0  0  0  0  0  0  0  0  0  0  0
   62.8670   83.6820   37.4770 C   0  0  0  0  0  0  0  0  0  0  0  0
   62.9040   83.2530   36.0880 C   0  0  0  0  0  0  0  0  0  0  0  0
   63.4340   84.0350   35.1200 C   0  0  0  0  0  0  0  0  0  0  0  0
   63.5030   83.6680   33.7010 C   0  0  0  0  0  0  0  0  0  0  0  0
   60.2817   80.6199   35.2913 H   0  0  0  0  0  0  0  0  0  0  0  0
   59.1901   80.6154   33.8647 H   0  0  0  0  0  0  0  0  0  0  0  0
   60.6722   79.6005   33.8647 H   0  0  0  0  0  0  0  0  0  0  0  0
   60.7485   82.7094   30.0770 H   0  0  0  0  0  0  0  0  0  0  0  0
   60.2603   80.9071   28.4324 H   0  0  0  0  0  0  0  0  0  0  0  0
   55.5886   79.2796   29.5353 H   0  0  0  0  0  0  0  0  0  0  0  0
   54.0417   77.3185   29.5906 H   0  0  0  0  0  0  0  0  0  0  0  0
   53.4080   74.1020   27.8430 H   0  0  0  0  0  0  0  0  0  0  0  0
   54.2160   75.3900   28.5840 H   0  0  0  0  0  0  0  0  0  0  0  0
   53.0990   77.9570   25.4089 H   0  0  0  0  0  0  0  0  0  0  0  0
   54.6502   79.9134   25.3615 H   0  0  0  0  0  0  0  0  0  0  0  0
   57.1676   79.3746   31.0300 H   0  0  0  0  0  0  0  0  0  0  0  0
   57.6667   81.1732   32.6788 H   0  0  0  0  0  0  0  0  0  0  0  0
   64.5880   84.3800   30.7200 H   0  0  0  0  0  0  0  0  0  0  0  0
   65.2523   86.3647   32.4547 H   0  0  0  0  0  0  0  0  0  0  0  0
   65.0479   87.0952   34.8785 H   0  0  0  0  0  0  0  0  0  0  0  0
   64.3330   86.5860   37.1550 H   0  0  0  0  0  0  0  0  0  0  0  0
   63.3410   85.2129   38.8460 H   0  0  0  0  0  0  0  0  0  0  0  0
   62.4332   83.0328   38.2518 H   0  0  0  0  0  0  0  0  0  0  0  0
   62.4914   82.2696   35.8183 H   0  0  0  0  0  0  0  0  0  0  0  0
  1  2  1  0
  2  3  1  0
  3  4  2  3
  4  5  1  0
  5  6  1  0
  6  7  2  0
  7  8  1  0
  8  9  1  0
  9 10  2  3
 10 11  1  0
 11 12  2  3
 12 13  1  0
 13 14  1  0
 14 15  2  0
 15 16  1  0
 16 17  1  0
 17 18  1  0
 17 19  2  0
 17 20  2  0
 16 21  2  0
 21 22  1  0
  8 23  2  0
 23 24  1  0
  2 25  2  3
 25 26  1  0
 26 27  1  0
 27 28  2  0
 27 29  1  0
 29 30  1  0
 30 31  2  0
 31 32  1  0
 32 33  2  0
 33 34  1  0
 34 35  1  0
 35 36  2  0
 36 37  1  0
 37 38  2  0
 38 39  1  0
 24  5  2  0
 39 26  2  0
 22 13  2  0
 39 30  1  0
 38 33  1  0
  1 40  1  0
  1 41  1  0
  1 42  1  0
  6 43  1  0
  7 44  1  0
 14 45  1  0
 15 46  1  0
 18 47  1  0
 18 48  1  0
 21 49  1  0
 22 50  1  0
 23 51  1  0
 24 52  1  0
 29 53  1  0
 31 54  1  0
 32 55  1  0
 34 56  1  0
 35 57  1  0
 36 58  1  0
 37 59  1  0
M  END
>  <meeko>  (1) 
{"is_sidechain": false}

>  <smiles>  (1) 
CC(N=Nc1ccc(N=NN=Nc2ccc(S(N)(=O)=O)cc2)cc1)=Nc1c(=O)[nH]c2ccc3[nH]cccc3c12

>  <vina_score>  (1) 
-8.097

>  <job_id>  (1) 
93d49bafd823a5b2

$$$$
