
     RDKit          3D

 49 52  0  0  0  0  0  0  0  0999 V2000
   54.4040   75.7640   30.2240 O   0  0  0  0  0  0  0  0  0  0  0  0
   54.8240   76.7000   29.5520 C   0  0  0  0  0  0  0  0  0  0  0  0
   55.9450   77.5300   30.0080 C   0  0  0  0  0  0  0  0  0  0  0  0
   56.3500   78.5370   29.2250 C   0  0  0  0  0  0  0  0  0  0  0  0
   57.4530   79.4220   29.6300 C   0  0  0  0  0  0  0  0  0  0  0  0
   57.7780   79.4820   30.9970 C   0  0  0  0  0  0  0  0  0  0  0  0
   58.8160   80.3010   31.4510 C   0  0  0  0  0  0  0  0  0  0  0  0
   59.5290   81.0660   30.5370 C   0  0  0  0  0  0  0  0  0  0  0  0
   60.5490   81.8790   30.9340 O   0  0  0  0  0  0  0  0  0  0  0  0
   59.2230   81.0300   29.1810 C   0  0  0  0  0  0  0  0  0  0  0  0
   58.1850   80.2130   28.7260 C   0  0  0  0  0  0  0  0  0  0  0  0
   57.8320   80.2320   27.0330 Cl  0  0  0  0  0  0  0  0  0  0  0  0
   55.7790   78.8760   28.0140 O   0  0  0  0  0  0  0  0  0  0  0  0
   54.7210   78.1310   27.5440 C   0  0  0  0  0  0  0  0  0  0  0  0
   54.1580   78.5040   26.3060 C   0  0  0  0  0  0  0  0  0  0  0  0
   54.6980   79.6850   25.5250 C   0  0  0  0  0  0  0  0  0  0  0  0
   54.0510   81.0660   25.7840 C   0  0  0  0  0  0  0  0  0  0  0  0
   53.2830   81.6300   24.5740 C   0  0  0  0  0  0  0  0  0  0  0  0
   52.9350   83.1170   24.7020 C   0  0  0  0  0  0  0  0  0  0  0  0
   52.9350   83.5970   26.1450 C   0  0  0  0  0  0  0  0  0  0  0  0
   54.2930   83.3760   26.8140 C   0  0  0  0  0  0  0  0  0  0  0  0
   55.0210   82.1160   26.3330 C   0  0  0  0  0  0  0  0  0  0  0  0
   53.0970   77.7300   25.8090 C   0  0  0  0  0  0  0  0  0  0  0  0
   52.5600   78.0450   24.5920 O   0  0  0  0  0  0  0  0  0  0  0  0
   52.5880   76.6420   26.5200 C   0  0  0  0  0  0  0  0  0  0  0  0
   53.1470   76.3030   27.7460 C   0  0  0  0  0  0  0  0  0  0  0  0
   52.6000   75.2280   28.3940 O   0  0  0  0  0  0  0  0  0  0  0  0
   54.2140   77.0420   28.2580 C   0  0  0  0  0  0  0  0  0  0  0  0
   56.4402   77.3295   30.9696 H   0  0  0  0  0  0  0  0  0  0  0  0
   57.2084   78.8770   31.7178 H   0  0  0  0  0  0  0  0  0  0  0  0
   59.0656   80.3392   32.5216 H   0  0  0  0  0  0  0  0  0  0  0  0
   61.3030   81.3320   31.2080 H   0  0  0  0  0  0  0  0  0  0  0  0
   59.7960   81.6424   28.4693 H   0  0  0  0  0  0  0  0  0  0  0  0
   55.7691   79.7734   25.7592 H   0  0  0  0  0  0  0  0  0  0  0  0
   54.4644   79.4577   24.4744 H   0  0  0  0  0  0  0  0  0  0  0  0
   53.3158   80.8545   26.5744 H   0  0  0  0  0  0  0  0  0  0  0  0
   53.9033   81.4949   23.6757 H   0  0  0  0  0  0  0  0  0  0  0  0
   52.3312   81.0818   24.5142 H   0  0  0  0  0  0  0  0  0  0  0  0
   53.6754   83.7018   24.1365 H   0  0  0  0  0  0  0  0  0  0  0  0
   51.9185   83.2559   24.3053 H   0  0  0  0  0  0  0  0  0  0  0  0
   52.6989   84.6712   26.1635 H   0  0  0  0  0  0  0  0  0  0  0  0
   52.1812   83.0185   26.6992 H   0  0  0  0  0  0  0  0  0  0  0  0
   54.9302   84.2472   26.6018 H   0  0  0  0  0  0  0  0  0  0  0  0
   54.1032   83.2458   27.8896 H   0  0  0  0  0  0  0  0  0  0  0  0
   55.7279   82.3961   25.5381 H   0  0  0  0  0  0  0  0  0  0  0  0
   55.5443   81.6766   27.1950 H   0  0  0  0  0  0  0  0  0  0  0  0
   52.7460   77.3260   23.9660 H   0  0  0  0  0  0  0  0  0  0  0  0
   51.7502   76.0571   26.1126 H   0  0  0  0  0  0  0  0  0  0  0  0
   51.9090   75.5600   29.0120 H   0  0  0  0  0  0  0  0  0  0  0  0
  1  2  2  0
  2  3  1  0
  3  4  2  0
  4  5  1  0
  5  6  1  0
  6  7  2  0
  7  8  1  0
  8  9  1  0
  8 10  2  0
 10 11  1  0
 11 12  1  0
  4 13  1  0
 13 14  1  0
 14 15  2  0
 15 16  1  0
 16 17  1  0
 17 18  1  0
 18 19  1  0
 19 20  1  0
 20 21  1  0
 21 22  1  0
 15 23  1  0
 23 24  1  0
 23 25  2  0
 25 26  1  0
 26 27  1  0
 26 28  2  0
 28  2  1  0
 11  5  2  0
 28 14  1  0
 22 17  1  0
  3 29  1  0
  6 30  1  0
  7 31  1  0
  9 32  1  0
 10 33  1  0
 16 34  1  0
 16 35  1  0
 17 36  1  0
 18 37  1  0
 18 38  1  0
 19 39  1  0
 19 40  1  0
 20 41  1  0
 20 42  1  0
 21 43  1  0
 21 44  1  0
 22 45  1  0
 22 46  1  0
 24 47  1  0
 25 48  1  0
 27 49  1  0
M  END
>  <meeko>  (1) 
{"is_sidechain": false}

>  <smiles>  (1) 
O=c1cc(-c2ccc(O)cc2Cl)oc2c(CC3CCCCC3)c(O)cc(O)c12

>  <vina_score>  (1) 
-7.675

>  <job_id>  (1) 
93dc88b188a09ac2

$$$$
