
     RDKit          3D

 36 37  0  0  0  0  0  0  0  0999 V2000
   52.1850   75.3570   26.5200 C   0  0  0  0  0  0  0  0  0  0  0  0
   52.9370   75.5180   27.8320 C   0  0  0  0  0  0  0  0  0  0  0  0
   52.9350   76.9730   28.3020 C   0  0  0  0  0  0  0  0  0  0  0  0
   54.2610   77.3730   28.7380 N   0  0  0  0  0  0  0  0  0  0  0  0
   54.8540   78.4050   28.0240 C   0  0  0  0  0  0  0  0  0  0  0  0
   56.0620   78.8690   28.3610 N   0  0  0  0  0  0  0  0  0  0  0  0
   56.5670   79.8570   27.6060 C   0  0  0  0  0  0  0  0  0  0  0  0
   55.9050   80.4080   26.5380 C   0  0  0  0  0  0  0  0  0  0  0  0
   54.6580   79.8840   26.2650 C   0  0  0  0  0  0  0  0  0  0  0  0
   53.8130   80.3620   25.1500 C   0  0  0  0  0  0  0  0  0  0  0  0
   53.2880   79.4510   24.2110 C   0  0  0  0  0  0  0  0  0  0  0  0
   52.4890   79.8770   23.1450 C   0  0  0  0  0  0  0  0  0  0  0  0
   52.1900   81.2310   23.0140 C   0  0  0  0  0  0  0  0  0  0  0  0
   51.1790   81.7870   21.6680 S   0  0  0  0  0  0  0  0  0  0  0  0
   49.6410   81.3570   22.2040 N   0  0  0  0  0  0  0  0  0  0  0  0
   51.4410   80.9510   20.5200 O   0  0  0  0  0  0  0  0  0  0  0  0
   51.2450   83.2280   21.6130 O   0  0  0  0  0  0  0  0  0  0  0  0
   52.6970   82.1610   23.9230 C   0  0  0  0  0  0  0  0  0  0  0  0
   53.4970   81.7250   24.9840 C   0  0  0  0  0  0  0  0  0  0  0  0
   54.1290   78.8830   27.0050 N   0  0  0  0  0  0  0  0  0  0  0  0
   51.1288   75.1309   26.7281 H   0  0  0  0  0  0  0  0  0  0  0  0
   52.2531   76.2901   25.9414 H   0  0  0  0  0  0  0  0  0  0  0  0
   52.6292   74.5336   25.9414 H   0  0  0  0  0  0  0  0  0  0  0  0
   52.4558   74.8936   28.5991 H   0  0  0  0  0  0  0  0  0  0  0  0
   53.9802   75.2072   27.6732 H   0  0  0  0  0  0  0  0  0  0  0  0
   52.6174   77.6204   27.4714 H   0  0  0  0  0  0  0  0  0  0  0  0
   52.2398   77.0703   29.1489 H   0  0  0  0  0  0  0  0  0  0  0  0
   54.9510   76.6320   28.7670 H   0  0  0  0  0  0  0  0  0  0  0  0
   57.5650   80.2458   27.8568 H   0  0  0  0  0  0  0  0  0  0  0  0
   56.3418   81.2183   25.9359 H   0  0  0  0  0  0  0  0  0  0  0  0
   53.5121   78.3795   24.3193 H   0  0  0  0  0  0  0  0  0  0  0  0
   52.1005   79.1496   22.4170 H   0  0  0  0  0  0  0  0  0  0  0  0
   49.6810   81.1820   23.2090 H   0  0  0  0  0  0  0  0  0  0  0  0
   48.9250   82.0440   21.9670 H   0  0  0  0  0  0  0  0  0  0  0  0
   52.4686   83.2306   23.8055 H   0  0  0  0  0  0  0  0  0  0  0  0
   53.8871   82.4605   25.7029 H   0  0  0  0  0  0  0  0  0  0  0  0
  1  2  1  0
  2  3  1  0
  3  4  1  0
  4  5  1  0
  5  6  2  0
  6  7  1  0
  7  8  2  0
  8  9  1  0
  9 10  1  0
 10 11  1  0
 11 12  2  0
 12 13  1  0
 13 14  1  0
 14 15  1  0
 14 16  2  0
 14 17  2  0
 13 18  2  0
 18 19  1  0
  9 20  2  0
 20  5  1  0
 19 10  2  0
  1 21  1  0
  1 22  1  0
  1 23  1  0
  2 24  1  0
  2 25  1  0
  3 26  1  0
  3 27  1  0
  4 28  1  0
  7 29  1  0
  8 30  1  0
 11 31  1  0
 12 32  1  0
 15 33  1  0
 15 34  1  0
 18 35  1  0
 19 36  1  0
M  END
>  <meeko>  (1) 
{"is_sidechain": false}

>  <smiles>  (1) 
CCCNc1nccc(-c2ccc(S(N)(=O)=O)cc2)n1

>  <vina_score>  (1) 
-7.864

>  <job_id>  (1) 
93e5249572772369

$$$$
