
     RDKit          3D

 36 37  0  0  0  0  0  0  0  0999 V2000
   59.2240   82.1060   33.9720 N   0  0  0  0  0  0  0  0  0  0  0  0
   60.4170   82.2880   32.7960 S   0  0  0  0  0  0  0  0  0  0  0  0
   61.5710   81.5280   33.2120 O   0  0  0  0  0  0  0  0  0  0  0  0
   60.4740   83.7040   32.5190 O   0  0  0  0  0  0  0  0  0  0  0  0
   59.6730   81.4690   31.4100 C   0  0  0  0  0  0  0  0  0  0  0  0
   58.6970   80.4930   31.6210 C   0  0  0  0  0  0  0  0  0  0  0  0
   58.1150   79.8570   30.5220 C   0  0  0  0  0  0  0  0  0  0  0  0
   58.4960   80.2010   29.2170 C   0  0  0  0  0  0  0  0  0  0  0  0
   57.8720   79.5030   28.0320 C   0  0  0  0  0  0  0  0  0  0  0  0
   56.5240   80.1250   27.6570 C   0  0  0  0  0  0  0  0  0  0  0  0
   55.4120   79.1050   27.6900 C   0  0  0  0  0  0  0  0  0  0  0  0
   55.3590   78.1450   28.7060 C   0  0  0  0  0  0  0  0  0  0  0  0
   54.3400   77.1900   28.7260 C   0  0  0  0  0  0  0  0  0  0  0  0
   53.3520   77.1800   27.7300 C   0  0  0  0  0  0  0  0  0  0  0  0
   52.2650   76.1350   27.7390 C   0  0  0  0  0  0  0  0  0  0  0  0
   51.8560   75.7770   26.4890 F   0  0  0  0  0  0  0  0  0  0  0  0
   51.1400   76.5370   28.3950 F   0  0  0  0  0  0  0  0  0  0  0  0
   52.6600   74.9820   28.3470 F   0  0  0  0  0  0  0  0  0  0  0  0
   53.4160   78.1340   26.7050 C   0  0  0  0  0  0  0  0  0  0  0  0
   54.4360   79.0890   26.6860 C   0  0  0  0  0  0  0  0  0  0  0  0
   59.4740   81.1880   29.0230 C   0  0  0  0  0  0  0  0  0  0  0  0
   60.0600   81.8270   30.1170 C   0  0  0  0  0  0  0  0  0  0  0  0
   59.1960   81.1280   34.2620 H   0  0  0  0  0  0  0  0  0  0  0  0
   59.3430   82.7350   34.7650 H   0  0  0  0  0  0  0  0  0  0  0  0
   58.3893   80.2274   32.6432 H   0  0  0  0  0  0  0  0  0  0  0  0
   57.3522   79.0806   30.6813 H   0  0  0  0  0  0  0  0  0  0  0  0
   58.5532   79.5819   27.1719 H   0  0  0  0  0  0  0  0  0  0  0  0
   57.7018   78.4506   28.3031 H   0  0  0  0  0  0  0  0  0  0  0  0
   56.2915   80.9295   28.3702 H   0  0  0  0  0  0  0  0  0  0  0  0
   56.5999   80.5176   26.6323 H   0  0  0  0  0  0  0  0  0  0  0  0
   56.1255   78.1422   29.4950 H   0  0  0  0  0  0  0  0  0  0  0  0
   54.3119   76.4393   29.5295 H   0  0  0  0  0  0  0  0  0  0  0  0
   52.6569   78.1309   25.9089 H   0  0  0  0  0  0  0  0  0  0  0  0
   54.4725   79.8332   25.8768 H   0  0  0  0  0  0  0  0  0  0  0  0
   59.7810   81.4601   28.0023 H   0  0  0  0  0  0  0  0  0  0  0  0
   60.8206   82.6064   29.9617 H   0  0  0  0  0  0  0  0  0  0  0  0
  1  2  1  0
  2  3  2  0
  2  4  2  0
  2  5  1  0
  5  6  1  0
  6  7  2  0
  7  8  1  0
  8  9  1  0
  9 10  1  0
 10 11  1  0
 11 12  1  0
 12 13  2  0
 13 14  1  0
 14 15  1  0
 15 16  1  0
 15 17  1  0
 15 18  1  0
 14 19  2  0
 19 20  1  0
  8 21  2  0
 21 22  1  0
 22  5  2  0
 20 11  2  0
  1 23  1  0
  1 24  1  0
  6 25  1  0
  7 26  1  0
  9 27  1  0
  9 28  1  0
 10 29  1  0
 10 30  1  0
 12 31  1  0
 13 32  1  0
 19 33  1  0
 20 34  1  0
 21 35  1  0
 22 36  1  0
M  END
>  <meeko>  (1) 
{"is_sidechain": false}

>  <smiles>  (1) 
NS(=O)(=O)c1ccc(CCc2ccc(C(F)(F)F)cc2)cc1

>  <vina_score>  (1) 
-8.744

>  <job_id>  (1) 
947bc8c14524fcf1

$$$$
