
     RDKit          3D

 49 51  0  0  0  0  0  0  0  0999 V2000
   58.2130   83.5580   32.3770 C   0  0  0  0  0  0  0  0  0  0  0  0
   58.4520   82.3990   31.5170 N   0  0  0  0  0  0  0  0  0  0  0  0
   59.7240   82.5370   30.8030 C   0  0  0  0  0  0  0  0  0  0  0  0
   59.7630   81.9130   29.4110 C   0  0  0  0  0  0  0  0  0  0  0  0
   59.3300   80.4430   29.4160 C   0  0  0  0  0  0  0  0  0  0  0  0
   57.9870   80.1800   29.9490 N   0  0  0  0  0  0  0  0  0  0  0  0
   57.4350   79.0970   29.2270 N   0  0  0  0  0  0  0  0  0  0  0  0
   56.5320   79.3600   28.1710 C   0  0  0  0  0  0  0  0  0  0  0  0
   55.2490   78.8050   28.1210 C   0  0  0  0  0  0  0  0  0  0  0  0
   54.3590   79.1330   27.0910 C   0  0  0  0  0  0  0  0  0  0  0  0
   54.7160   80.0480   26.0900 C   0  0  0  0  0  0  0  0  0  0  0  0
   53.7800   80.3940   25.0070 C   0  0  0  0  0  0  0  0  0  0  0  0
   53.4320   81.7330   24.7530 C   0  0  0  0  0  0  0  0  0  0  0  0
   52.5470   82.0690   23.7240 C   0  0  0  0  0  0  0  0  0  0  0  0
   51.9910   81.0570   22.9410 C   0  0  0  0  0  0  0  0  0  0  0  0
   50.8700   81.4660   21.6310 S   0  0  0  0  0  0  0  0  0  0  0  0
   49.3950   80.9940   22.2940 N   0  0  0  0  0  0  0  0  0  0  0  0
   50.8000   82.9050   21.5180 O   0  0  0  0  0  0  0  0  0  0  0  0
   51.1470   80.6090   20.5040 O   0  0  0  0  0  0  0  0  0  0  0  0
   52.3290   79.7200   23.1620 C   0  0  0  0  0  0  0  0  0  0  0  0
   53.2160   79.3960   24.1910 C   0  0  0  0  0  0  0  0  0  0  0  0
   55.9900   80.6300   26.1620 C   0  0  0  0  0  0  0  0  0  0  0  0
   56.8800   80.2980   27.1920 C   0  0  0  0  0  0  0  0  0  0  0  0
   57.9690   79.8790   31.3910 C   0  0  0  0  0  0  0  0  0  0  0  0
   58.2670   81.1320   32.2370 C   0  0  0  0  0  0  0  0  0  0  0  0
   58.2762   83.2514   33.4315 H   0  0  0  0  0  0  0  0  0  0  0  0
   58.9712   84.3285   32.1731 H   0  0  0  0  0  0  0  0  0  0  0  0
   57.2119   83.9657   32.1731 H   0  0  0  0  0  0  0  0  0  0  0  0
   59.9409   83.6105   30.7001 H   0  0  0  0  0  0  0  0  0  0  0  0
   60.4687   81.9915   31.4012 H   0  0  0  0  0  0  0  0  0  0  0  0
   59.0873   82.4778   28.7519 H   0  0  0  0  0  0  0  0  0  0  0  0
   60.8028   81.9546   29.0545 H   0  0  0  0  0  0  0  0  0  0  0  0
   59.3603   80.0775   28.3789 H   0  0  0  0  0  0  0  0  0  0  0  0
   60.0285   79.9253   30.0899 H   0  0  0  0  0  0  0  0  0  0  0  0
   57.2040   78.2570   29.7550 H   0  0  0  0  0  0  0  0  0  0  0  0
   54.9340   78.0992   28.9038 H   0  0  0  0  0  0  0  0  0  0  0  0
   53.3636   78.6654   27.0666 H   0  0  0  0  0  0  0  0  0  0  0  0
   53.8641   82.5305   25.3754 H   0  0  0  0  0  0  0  0  0  0  0  0
   52.2914   83.1218   23.5335 H   0  0  0  0  0  0  0  0  0  0  0  0
   48.6250   81.6130   22.0430 H   0  0  0  0  0  0  0  0  0  0  0  0
   49.2100   80.0260   22.0260 H   0  0  0  0  0  0  0  0  0  0  0  0
   51.8999   78.9282   22.5304 H   0  0  0  0  0  0  0  0  0  0  0  0
   53.4783   78.3423   24.3666 H   0  0  0  0  0  0  0  0  0  0  0  0
   56.2956   81.3592   25.3972 H   0  0  0  0  0  0  0  0  0  0  0  0
   57.8671   80.7818   27.2319 H   0  0  0  0  0  0  0  0  0  0  0  0
   56.9753   79.4932   31.6625 H   0  0  0  0  0  0  0  0  0  0  0  0
   58.7504   79.1323   31.5959 H   0  0  0  0  0  0  0  0  0  0  0  0
   57.4277   81.2674   32.9350 H   0  0  0  0  0  0  0  0  0  0  0  0
   59.2391   80.9301   32.7106 H   0  0  0  0  0  0  0  0  0  0  0  0
  1  2  1  0
  2  3  1  0
  3  4  1  0
  4  5  1  0
  5  6  1  0
  6  7  1  0
  7  8  1  0
  8  9  1  0
  9 10  2  0
 10 11  1  0
 11 12  1  0
 12 13  1  0
 13 14  2  0
 14 15  1  0
 15 16  1  0
 16 17  1  0
 16 18  2  0
 16 19  2  0
 15 20  2  0
 20 21  1  0
 11 22  2  0
 22 23  1  0
  6 24  1  0
 24 25  1  0
 25  2  1  0
 23  8  2  0
 21 12  2  0
  1 26  1  0
  1 27  1  0
  1 28  1  0
  3 29  1  0
  3 30  1  0
  4 31  1  0
  4 32  1  0
  5 33  1  0
  5 34  1  0
  7 35  1  0
  9 36  1  0
 10 37  1  0
 13 38  1  0
 14 39  1  0
 17 40  1  0
 17 41  1  0
 20 42  1  0
 21 43  1  0
 22 44  1  0
 23 45  1  0
 24 46  1  0
 24 47  1  0
 25 48  1  0
 25 49  1  0
M  END
>  <meeko>  (1) 
{"is_sidechain": false}

>  <smiles>  (1) 
CN1CCCN(Nc2ccc(-c3ccc(S(N)(=O)=O)cc3)cc2)CC1

>  <vina_score>  (1) 
-6.758

>  <job_id>  (1) 
948a672bcdd91647

$$$$
