
     RDKit          3D

 50 52  0  0  0  0  0  0  0  0999 V2000
   56.1200   76.9340   29.6350 N   0  0  0  0  0  0  0  0  0  0  0  0
   55.8130   77.8220   28.4890 C   0  0  2  0  0  0  0  0  0  0  0  0
   56.8940   78.9310   28.3690 C   0  0  0  0  0  0  0  0  0  0  0  0
   57.5900   79.0610   29.6440 N   0  0  0  0  0  0  0  0  0  0  0  0
   58.5370   80.0180   29.8210 C   0  0  0  0  0  0  0  0  0  0  0  0
   59.1530   80.6070   28.8190 N   0  0  0  0  0  0  0  0  0  0  0  0
   60.0750   81.5470   29.2320 N   0  0  0  0  0  0  0  0  0  0  0  0
   60.1180   81.6730   30.5410 C   0  0  0  0  0  0  0  0  0  0  0  0
   60.9080   82.5240   31.2420 N   0  0  0  0  0  0  0  0  0  0  0  0
   62.3510   82.4960   31.0440 C   0  0  2  0  0  0  0  0  0  0  0  0
   63.0240   82.0030   32.3380 C   0  0  0  0  0  0  0  0  0  0  0  0
   64.3920   82.6400   32.6030 C   0  0  0  0  0  0  0  0  0  0  0  0
   65.1750   82.9660   31.3290 C   0  0  1  0  0  0  0  0  0  0  0  0
   65.5560   81.7290   30.6450 N   0  0  0  0  0  0  0  0  0  0  0  0
   64.3750   83.8980   30.4030 C   0  0  0  0  0  0  0  0  0  0  0  0
   62.8630   83.8830   30.6450 C   0  0  0  0  0  0  0  0  0  0  0  0
   59.0330   80.6210   31.3600 S   0  0  0  0  0  0  0  0  0  0  0  0
   54.4130   78.4640   28.5930 C   0  0  0  0  0  0  0  0  0  0  0  0
   53.9400   79.1120   27.3120 C   0  0  0  0  0  0  0  0  0  0  0  0
   53.7710   78.3490   26.1470 C   0  0  0  0  0  0  0  0  0  0  0  0
   53.3270   78.9470   24.9660 C   0  0  0  0  0  0  0  0  0  0  0  0
   53.0480   80.3120   24.9340 C   0  0  0  0  0  0  0  0  0  0  0  0
   53.2170   81.0760   26.0870 C   0  0  0  0  0  0  0  0  0  0  0  0
   52.8740   82.7630   26.0510 Cl  0  0  0  0  0  0  0  0  0  0  0  0
   53.6600   80.4870   27.2700 C   0  0  0  0  0  0  0  0  0  0  0  0
   56.0080   75.9590   29.3560 H   0  0  0  0  0  0  0  0  0  0  0  0
   57.1080   77.0390   29.8770 H   0  0  0  0  0  0  0  0  0  0  0  0
   55.8175   77.1942   27.5858 H   0  0  0  0  0  0  0  0  0  0  0  0
   57.6138   78.6598   27.5827 H   0  0  0  0  0  0  0  0  0  0  0  0
   56.4159   79.8871   28.1093 H   0  0  0  0  0  0  0  0  0  0  0  0
   56.9260   78.9960   30.4210 H   0  0  0  0  0  0  0  0  0  0  0  0
   60.5100   83.4270   31.4780 H   0  0  0  0  0  0  0  0  0  0  0  0
   62.6014   81.8048   30.2258 H   0  0  0  0  0  0  0  0  0  0  0  0
   62.3620   82.2375   33.1846 H   0  0  0  0  0  0  0  0  0  0  0  0
   63.1903   80.9219   32.2216 H   0  0  0  0  0  0  0  0  0  0  0  0
   64.2378   83.5733   33.1645 H   0  0  0  0  0  0  0  0  0  0  0  0
   64.9856   81.9050   33.1664 H   0  0  0  0  0  0  0  0  0  0  0  0
   66.0924   83.5036   31.6106 H   0  0  0  0  0  0  0  0  0  0  0  0
   66.0220   81.1040   31.3040 H   0  0  0  0  0  0  0  0  0  0  0  0
   66.2370   81.9040   29.9090 H   0  0  0  0  0  0  0  0  0  0  0  0
   64.7374   84.9258   30.5526 H   0  0  0  0  0  0  0  0  0  0  0  0
   64.5328   83.5332   29.3773 H   0  0  0  0  0  0  0  0  0  0  0  0
   62.6270   84.5926   31.4518 H   0  0  0  0  0  0  0  0  0  0  0  0
   62.3691   84.1655   29.7036 H   0  0  0  0  0  0  0  0  0  0  0  0
   53.6926   77.6808   28.8715 H   0  0  0  0  0  0  0  0  0  0  0  0
   54.4825   79.2614   29.3476 H   0  0  0  0  0  0  0  0  0  0  0  0
   53.9900   77.2712   26.1641 H   0  0  0  0  0  0  0  0  0  0  0  0
   53.1971   78.3391   24.0585 H   0  0  0  0  0  0  0  0  0  0  0  0
   52.6966   80.7834   24.0043 H   0  0  0  0  0  0  0  0  0  0  0  0
   53.7906   81.1012   28.1732 H   0  0  0  0  0  0  0  0  0  0  0  0
  1  2  1  0
  2  3  1  0
  3  4  1  0
  4  5  1  0
  5  6  2  0
  6  7  1  0
  7  8  2  0
  8  9  1  0
  9 10  1  0
 10 11  1  0
 11 12  1  0
 12 13  1  0
 13 14  1  0
 13 15  1  0
 15 16  1  0
  8 17  1  0
  2 18  1  0
 18 19  1  0
 19 20  2  0
 20 21  1  0
 21 22  2  0
 22 23  1  0
 23 24  1  0
 23 25  2  0
 17  5  1  0
 25 19  1  0
 16 10  1  0
  1 26  1  0
  1 27  1  0
  2 28  1  6
  3 29  1  0
  3 30  1  0
  4 31  1  0
  9 32  1  0
 10 33  1  1
 11 34  1  0
 11 35  1  0
 12 36  1  0
 12 37  1  0
 13 38  1  6
 14 39  1  0
 14 40  1  0
 15 41  1  0
 15 42  1  0
 16 43  1  0
 16 44  1  0
 18 45  1  0
 18 46  1  0
 20 47  1  0
 21 48  1  0
 22 49  1  0
 25 50  1  0
M  END
>  <meeko>  (1) 
{"is_sidechain": false}

>  <smiles>  (1) 
N[C@H](CNc1nnc(N[C@H]2CC[C@H](N)CC2)s1)Cc1cccc(Cl)c1

>  <vina_score>  (1) 
-7.566

>  <job_id>  (1) 
964e9e9d10cc82a9

$$$$
