
     RDKit          3D

 54 56  0  0  0  0  0  0  0  0999 V2000
   56.3120   78.3580   29.8940 C   0  0  0  0  0  0  0  0  0  0  0  0
   57.5530   78.7290   29.3090 O   0  0  0  0  0  0  0  0  0  0  0  0
   58.1690   79.8620   29.7980 C   0  0  0  0  0  0  0  0  0  0  0  0
   58.7490   79.9720   31.0730 C   0  0  0  0  0  0  0  0  0  0  0  0
   59.3700   81.1540   31.5100 C   0  0  0  0  0  0  0  0  0  0  0  0
   59.9400   81.2670   32.7710 N   0  0  0  0  0  0  0  0  0  0  0  0
   60.4800   80.0780   33.4590 C   0  0  0  0  0  0  0  0  0  0  0  0
   60.4460   80.2320   34.9900 C   0  0  0  0  0  0  0  0  0  0  0  0
   61.1130   81.4500   35.4530 N   0  0  0  0  0  0  0  0  0  0  0  0
   61.7620   81.4420   36.6740 C   0  0  0  0  0  0  0  0  0  0  0  0
   62.4910   82.7010   37.0710 C   0  0  0  0  0  0  0  0  0  0  0  0
   61.7560   80.4650   37.4240 O   0  0  0  0  0  0  0  0  0  0  0  0
   61.0460   82.6060   34.5540 C   0  0  0  0  0  0  0  0  0  0  0  0
   59.8940   82.5240   33.5340 C   0  0  0  0  0  0  0  0  0  0  0  0
   59.3740   82.2250   30.6070 C   0  0  0  0  0  0  0  0  0  0  0  0
   58.7960   82.1320   29.3330 C   0  0  0  0  0  0  0  0  0  0  0  0
   58.1850   80.9550   28.9060 C   0  0  0  0  0  0  0  0  0  0  0  0
   57.5920   80.7990   27.6440 N   0  0  0  0  0  0  0  0  0  0  0  0
   56.4010   81.2080   27.0650 C   0  0  0  0  0  0  0  0  0  0  0  0
   56.2050   82.4630   26.6520 N   0  0  0  0  0  0  0  0  0  0  0  0
   55.0150   82.7570   26.1010 C   0  0  0  0  0  0  0  0  0  0  0  0
   53.9910   81.8480   25.9270 C   0  0  0  0  0  0  0  0  0  0  0  0
   52.6960   82.2810   25.3200 C   0  0  0  0  0  0  0  0  0  0  0  0
   54.2620   80.5670   26.3910 C   0  0  0  0  0  0  0  0  0  0  0  0
   53.2540   79.4300   26.3040 C   0  0  0  0  0  0  0  0  0  0  0  0
   51.9610   79.8570   26.4870 F   0  0  0  0  0  0  0  0  0  0  0  0
   53.4380   78.5040   27.3010 F   0  0  0  0  0  0  0  0  0  0  0  0
   53.3640   78.7330   24.9420 C   0  0  0  0  0  0  0  0  0  0  0  0
   52.9820   77.4300   25.0190 F   0  0  0  0  0  0  0  0  0  0  0  0
   52.5600   79.3110   24.0100 F   0  0  0  0  0  0  0  0  0  0  0  0
   54.6210   78.7390   24.4350 F   0  0  0  0  0  0  0  0  0  0  0  0
   55.4630   80.2550   26.9470 N   0  0  0  0  0  0  0  0  0  0  0  0
   56.4008   78.3846   30.9901 H   0  0  0  0  0  0  0  0  0  0  0  0
   55.5301   79.0617   29.5723 H   0  0  0  0  0  0  0  0  0  0  0  0
   56.0446   77.3406   29.5723 H   0  0  0  0  0  0  0  0  0  0  0  0
   58.7158   79.1057   31.7501 H   0  0  0  0  0  0  0  0  0  0  0  0
   59.8788   79.2010   33.1770 H   0  0  0  0  0  0  0  0  0  0  0  0
   61.5296   79.9563   33.1532 H   0  0  0  0  0  0  0  0  0  0  0  0
   59.3961   80.2603   35.3171 H   0  0  0  0  0  0  0  0  0  0  0  0
   60.9849   79.3753   35.4209 H   0  0  0  0  0  0  0  0  0  0  0  0
   62.5314   82.7708   38.1680 H   0  0  0  0  0  0  0  0  0  0  0  0
   63.5139   82.6752   36.6673 H   0  0  0  0  0  0  0  0  0  0  0  0
   61.9594   83.5753   36.6673 H   0  0  0  0  0  0  0  0  0  0  0  0
   60.9093   83.5126   35.1618 H   0  0  0  0  0  0  0  0  0  0  0  0
   61.9850   82.6260   33.9814 H   0  0  0  0  0  0  0  0  0  0  0  0
   58.9358   82.5816   34.0712 H   0  0  0  0  0  0  0  0  0  0  0  0
   59.9971   83.3611   32.8279 H   0  0  0  0  0  0  0  0  0  0  0  0
   59.8469   83.1715   30.9078 H   0  0  0  0  0  0  0  0  0  0  0  0
   58.8254   83.0018   28.6602 H   0  0  0  0  0  0  0  0  0  0  0  0
   58.1510   80.2640   26.9920 H   0  0  0  0  0  0  0  0  0  0  0  0
   54.8458   83.7911   25.7663 H   0  0  0  0  0  0  0  0  0  0  0  0
   51.9787   82.5208   26.1187 H   0  0  0  0  0  0  0  0  0  0  0  0
   52.8628   83.1722   24.6972 H   0  0  0  0  0  0  0  0  0  0  0  0
   52.2932   81.4687   24.6972 H   0  0  0  0  0  0  0  0  0  0  0  0
  1  2  1  0
  2  3  1  0
  3  4  1  0
  4  5  2  0
  5  6  1  0
  6  7  1  0
  7  8  1  0
  8  9  1  0
  9 10  1  0
 10 11  1  0
 10 12  2  0
  9 13  1  0
 13 14  1  0
  5 15  1  0
 15 16  2  0
 16 17  1  0
 17 18  1  0
 18 19  1  0
 19 20  2  0
 20 21  1  0
 21 22  2  0
 22 23  1  0
 22 24  1  0
 24 25  1  0
 25 26  1  0
 25 27  1  0
 25 28  1  0
 28 29  1  0
 28 30  1  0
 28 31  1  0
 24 32  2  0
 17  3  2  0
 32 19  1  0
 14  6  1  0
  1 33  1  0
  1 34  1  0
  1 35  1  0
  4 36  1  0
  7 37  1  0
  7 38  1  0
  8 39  1  0
  8 40  1  0
 11 41  1  0
 11 42  1  0
 11 43  1  0
 13 44  1  0
 13 45  1  0
 14 46  1  0
 14 47  1  0
 15 48  1  0
 16 49  1  0
 18 50  1  0
 21 51  1  0
 23 52  1  0
 23 53  1  0
 23 54  1  0
M  END
>  <meeko>  (1) 
{"is_sidechain": false}

>  <smiles>  (1) 
COc1cc(N2CCN(C(C)=O)CC2)ccc1Nc1ncc(C)c(C(F)(F)C(F)(F)F)n1

>  <vina_score>  (1) 
-7.711

>  <job_id>  (1) 
969603069c8c2673

$$$$
