
     RDKit          3D

 56 57  0  0  0  0  0  0  0  0999 V2000
   53.3100   81.6270   27.1110 C   0  0  0  0  0  0  0  0  0  0  0  0
   54.2150   80.4940   26.6340 C   0  0  1  0  0  0  0  0  0  0  0  0
   53.6980   79.2500   27.1070 O   0  0  0  0  0  0  0  0  0  0  0  0
   54.5850   78.4530   27.7960 C   0  0  0  0  0  0  0  0  0  0  0  0
   55.8050   78.9390   28.1000 N   0  0  0  0  0  0  0  0  0  0  0  0
   56.6430   78.1360   28.7720 C   0  0  0  0  0  0  0  0  0  0  0  0
   57.8860   78.6910   29.0610 N   0  0  0  0  0  0  0  0  0  0  0  0
   58.3020   79.8570   29.7150 C   0  0  0  0  0  0  0  0  0  0  0  0
   58.9670   80.9130   29.0810 C   0  0  0  0  0  0  0  0  0  0  0  0
   59.3710   82.0500   29.7910 C   0  0  0  0  0  0  0  0  0  0  0  0
   59.1210   82.1330   31.1590 C   0  0  0  0  0  0  0  0  0  0  0  0
   59.6160   83.5820   32.0620 S   0  0  0  0  0  0  0  0  0  0  0  0
   60.8080   84.1050   31.4220 O   0  0  0  0  0  0  0  0  0  0  0  0
   58.4360   84.4130   32.2270 O   0  0  0  0  0  0  0  0  0  0  0  0
   60.0530   82.9140   33.6950 C   0  0  1  0  0  0  0  0  0  0  0  0
   61.4330   82.2730   33.6430 C   0  0  0  0  0  0  0  0  0  0  0  0
   60.0610   83.8890   34.7590 O   0  0  0  0  0  0  0  0  0  0  0  0
   58.4480   81.1040   31.8150 C   0  0  0  0  0  0  0  0  0  0  0  0
   58.0510   79.9740   31.0940 C   0  0  0  0  0  0  0  0  0  0  0  0
   56.3110   76.8940   29.1480 N   0  0  0  0  0  0  0  0  0  0  0  0
   55.0820   76.4480   28.8230 C   0  0  0  0  0  0  0  0  0  0  0  0
   54.1600   77.1950   28.1360 C   0  0  0  0  0  0  0  0  0  0  0  0
   52.8130   76.6810   27.7960 C   0  0  0  0  0  0  0  0  0  0  0  0
   52.5450   76.7420   26.4590 F   0  0  0  0  0  0  0  0  0  0  0  0
   52.6370   75.3750   28.1380 F   0  0  0  0  0  0  0  0  0  0  0  0
   51.8060   77.3720   28.3970 F   0  0  0  0  0  0  0  0  0  0  0  0
   54.1570   80.5300   25.1990 O   0  0  0  0  0  0  0  0  0  0  0  0
   52.9370   80.0230   24.6450 C   0  0  2  0  0  0  0  0  0  0  0  0
   53.3100   78.7420   23.8950 C   0  0  0  0  0  0  0  0  0  0  0  0
   52.2050   81.0470   23.7420 C   0  0  1  0  0  0  0  0  0  0  0  0
   52.9310   81.3570   22.4360 C   0  0  0  0  0  0  0  0  0  0  0  0
   50.8740   80.6070   23.4570 O   0  0  0  0  0  0  0  0  0  0  0  0
   53.2949   81.6459   28.2107 H   0  0  0  0  0  0  0  0  0  0  0  0
   53.6932   82.5863   26.7330 H   0  0  0  0  0  0  0  0  0  0  0  0
   52.2897   81.4652   26.7330 H   0  0  0  0  0  0  0  0  0  0  0  0
   55.2461   80.6018   27.0019 H   0  0  0  0  0  0  0  0  0  0  0  0
   58.6110   78.0690   28.7360 H   0  0  0  0  0  0  0  0  0  0  0  0
   59.1764   80.8482   28.0031 H   0  0  0  0  0  0  0  0  0  0  0  0
   59.8831   82.8734   29.2715 H   0  0  0  0  0  0  0  0  0  0  0  0
   59.2638   82.1829   33.9245 H   0  0  0  0  0  0  0  0  0  0  0  0
   61.7975   82.1037   34.6670 H   0  0  0  0  0  0  0  0  0  0  0  0
   61.3709   81.3115   33.1122 H   0  0  0  0  0  0  0  0  0  0  0  0
   62.1276   82.9406   33.1122 H   0  0  0  0  0  0  0  0  0  0  0  0
   60.5140   84.6770   34.3970 H   0  0  0  0  0  0  0  0  0  0  0  0
   58.2311   81.1802   32.8907 H   0  0  0  0  0  0  0  0  0  0  0  0
   57.5306   79.1580   31.6169 H   0  0  0  0  0  0  0  0  0  0  0  0
   54.8027   75.4280   29.1256 H   0  0  0  0  0  0  0  0  0  0  0  0
   52.2110   79.8156   25.4449 H   0  0  0  0  0  0  0  0  0  0  0  0
   53.5414   77.9472   24.6194 H   0  0  0  0  0  0  0  0  0  0  0  0
   52.4660   78.4280   23.2633 H   0  0  0  0  0  0  0  0  0  0  0  0
   54.1907   78.9302   23.2633 H   0  0  0  0  0  0  0  0  0  0  0  0
   52.1832   81.9830   24.3194 H   0  0  0  0  0  0  0  0  0  0  0  0
   53.9217   81.7800   22.6587 H   0  0  0  0  0  0  0  0  0  0  0  0
   53.0500   80.4312   21.8540 H   0  0  0  0  0  0  0  0  0  0  0  0
   52.3446   82.0832   21.8540 H   0  0  0  0  0  0  0  0  0  0  0  0
   50.3310   80.7560   24.2510 H   0  0  0  0  0  0  0  0  0  0  0  0
  1  2  1  0
  2  3  1  0
  3  4  1  0
  4  5  2  0
  5  6  1  0
  6  7  1  0
  7  8  1  0
  8  9  1  0
  9 10  2  0
 10 11  1  0
 11 12  1  0
 12 13  2  0
 12 14  2  0
 12 15  1  0
 15 16  1  0
 15 17  1  0
 11 18  2  0
 18 19  1  0
  6 20  2  0
 20 21  1  0
 21 22  2  0
 22 23  1  0
 23 24  1  0
 23 25  1  0
 23 26  1  0
  2 27  1  0
 27 28  1  0
 28 29  1  0
 28 30  1  0
 30 31  1  0
 30 32  1  0
 22  4  1  0
 19  8  2  0
  1 33  1  0
  1 34  1  0
  1 35  1  0
  2 36  1  6
  7 37  1  0
  9 38  1  0
 10 39  1  0
 15 40  1  1
 16 41  1  0
 16 42  1  0
 16 43  1  0
 17 44  1  0
 18 45  1  0
 19 46  1  0
 21 47  1  0
 28 48  1  1
 29 49  1  0
 29 50  1  0
 29 51  1  0
 30 52  1  1
 31 53  1  0
 31 54  1  0
 31 55  1  0
 32 56  1  0
M  END
>  <meeko>  (1) 
{"is_sidechain": false}

>  <smiles>  (1) 
C[C@@H](Oc1nc(Nc2ccc(S(=O)(=O)[C@@H](C)O)cc2)ncc1C(F)(F)F)O[C@H](C)[C@@H](C)O

>  <vina_score>  (1) 
-8.353

>  <job_id>  (1) 
96c9190d989f4c00

$$$$
