
     RDKit          3D

 43 44  0  0  0  0  0  0  0  0999 V2000
   58.3550   83.8830   32.1310 C   0  0  0  0  0  0  0  0  0  0  0  0
   59.1810   82.8030   32.8270 C   0  0  0  0  0  0  0  0  0  0  0  0
   60.0620   83.4340   33.9010 C   0  0  0  0  0  0  0  0  0  0  0  0
   59.9980   82.1990   31.8180 O   0  0  0  0  0  0  0  0  0  0  0  0
   59.4210   81.3640   30.9050 C   0  0  0  0  0  0  0  0  0  0  0  0
   58.5660   80.4070   31.4570 C   0  0  0  0  0  0  0  0  0  0  0  0
   57.9050   79.4820   30.6450 C   0  0  0  0  0  0  0  0  0  0  0  0
   58.0840   79.5070   29.2590 C   0  0  0  0  0  0  0  0  0  0  0  0
   57.3950   78.4930   28.3760 C   0  0  0  0  0  0  0  0  0  0  0  0
   55.8830   78.3950   28.6250 C   0  0  0  0  0  0  0  0  0  0  0  0
   55.0570   79.1810   27.6320 C   0  0  0  0  0  0  0  0  0  0  0  0
   55.6530   80.1770   26.8440 C   0  0  0  0  0  0  0  0  0  0  0  0
   54.8990   80.8820   25.9060 C   0  0  0  0  0  0  0  0  0  0  0  0
   53.5390   80.5930   25.7590 C   0  0  0  0  0  0  0  0  0  0  0  0
   52.5890   81.4850   24.5580 S   0  0  0  0  0  0  0  0  0  0  0  0
   53.3100   80.9820   23.1210 N   0  0  0  0  0  0  0  0  0  0  0  0
   51.2360   80.9820   24.5780 O   0  0  0  0  0  0  0  0  0  0  0  0
   52.8980   82.8920   24.6780 O   0  0  0  0  0  0  0  0  0  0  0  0
   52.9340   79.5960   26.5250 C   0  0  0  0  0  0  0  0  0  0  0  0
   53.6940   78.8960   27.4630 C   0  0  0  0  0  0  0  0  0  0  0  0
   58.9350   80.4720   28.7060 C   0  0  0  0  0  0  0  0  0  0  0  0
   59.5970   81.3950   29.5230 C   0  0  0  0  0  0  0  0  0  0  0  0
   57.8696   84.5176   32.8871 H   0  0  0  0  0  0  0  0  0  0  0  0
   59.0137   84.5002   31.5023 H   0  0  0  0  0  0  0  0  0  0  0  0
   57.5868   83.4090   31.5023 H   0  0  0  0  0  0  0  0  0  0  0  0
   58.5339   82.0582   33.3134 H   0  0  0  0  0  0  0  0  0  0  0  0
   59.6802   83.1605   34.8957 H   0  0  0  0  0  0  0  0  0  0  0  0
   61.0935   83.0680   33.7908 H   0  0  0  0  0  0  0  0  0  0  0  0
   60.0475   84.5284   33.7908 H   0  0  0  0  0  0  0  0  0  0  0  0
   58.4111   80.3814   32.5457 H   0  0  0  0  0  0  0  0  0  0  0  0
   57.2411   78.7311   31.0982 H   0  0  0  0  0  0  0  0  0  0  0  0
   57.5577   78.7773   27.3259 H   0  0  0  0  0  0  0  0  0  0  0  0
   57.8274   77.5096   28.6123 H   0  0  0  0  0  0  0  0  0  0  0  0
   55.5877   77.3371   28.5637 H   0  0  0  0  0  0  0  0  0  0  0  0
   55.6898   78.8246   29.6190 H   0  0  0  0  0  0  0  0  0  0  0  0
   56.7224   80.4035   26.9668 H   0  0  0  0  0  0  0  0  0  0  0  0
   55.3706   81.6593   25.2868 H   0  0  0  0  0  0  0  0  0  0  0  0
   53.1960   79.9850   22.9440 H   0  0  0  0  0  0  0  0  0  0  0  0
   54.2940   81.2560   23.1360 H   0  0  0  0  0  0  0  0  0  0  0  0
   51.8672   79.3638   26.3907 H   0  0  0  0  0  0  0  0  0  0  0  0
   53.2203   78.1143   28.0749 H   0  0  0  0  0  0  0  0  0  0  0  0
   59.0847   80.5047   27.6167 H   0  0  0  0  0  0  0  0  0  0  0  0
   60.2595   82.1486   29.0723 H   0  0  0  0  0  0  0  0  0  0  0  0
  1  2  1  0
  2  3  1  0
  2  4  1  0
  4  5  1  0
  5  6  1  0
  6  7  2  0
  7  8  1  0
  8  9  1  0
  9 10  1  0
 10 11  1  0
 11 12  1  0
 12 13  2  0
 13 14  1  0
 14 15  1  0
 15 16  1  0
 15 17  2  0
 15 18  2  0
 14 19  2  0
 19 20  1  0
  8 21  2  0
 21 22  1  0
 22  5  2  0
 20 11  2  0
  1 23  1  0
  1 24  1  0
  1 25  1  0
  2 26  1  0
  3 27  1  0
  3 28  1  0
  3 29  1  0
  6 30  1  0
  7 31  1  0
  9 32  1  0
  9 33  1  0
 10 34  1  0
 10 35  1  0
 12 36  1  0
 13 37  1  0
 16 38  1  0
 16 39  1  0
 19 40  1  0
 20 41  1  0
 21 42  1  0
 22 43  1  0
M  END
>  <meeko>  (1) 
{"is_sidechain": false}

>  <smiles>  (1) 
CC(C)Oc1ccc(CCc2ccc(S(N)(=O)=O)cc2)cc1

>  <vina_score>  (1) 
-7.756

>  <job_id>  (1) 
96f4bfa4c6c952b8

$$$$
