
     RDKit          3D

 36 37  0  0  0  0  0  0  0  0999 V2000
   53.6840   78.3680   24.2700 C   0  0  0  0  0  0  0  0  0  0  0  0
   52.8400   79.3980   24.7710 O   0  0  0  0  0  0  0  0  0  0  0  0
   52.5140   80.3990   23.8940 C   0  0  0  0  0  0  0  0  0  0  0  0
   52.1170   80.2140   22.5700 C   0  0  0  0  0  0  0  0  0  0  0  0
   51.7810   81.3220   21.7910 C   0  0  0  0  0  0  0  0  0  0  0  0
   51.3970   81.1330   20.5210 F   0  0  0  0  0  0  0  0  0  0  0  0
   51.8220   82.6150   22.3040 C   0  0  0  0  0  0  0  0  0  0  0  0
   52.2100   82.8150   23.6250 C   0  0  0  0  0  0  0  0  0  0  0  0
   52.5640   81.7080   24.3990 C   0  0  0  0  0  0  0  0  0  0  0  0
   52.9250   81.9290   25.7330 O   0  0  0  0  0  0  0  0  0  0  0  0
   54.2650   81.6550   25.9860 C   0  0  0  0  0  0  0  0  0  0  0  0
   55.2080   82.2640   25.5040 O   0  0  0  0  0  0  0  0  0  0  0  0
   54.3190   80.6240   26.8900 N   0  0  0  0  0  0  0  0  0  0  0  0
   55.4570   79.9500   27.2760 C   0  0  0  0  0  0  0  0  0  0  0  0
   56.6030   80.3190   27.0450 O   0  0  0  0  0  0  0  0  0  0  0  0
   55.2600   78.7030   28.0750 C   0  0  0  0  0  0  0  0  0  0  0  0
   54.2130   77.8370   27.7190 C   0  0  0  0  0  0  0  0  0  0  0  0
   53.9740   76.6560   28.4380 C   0  0  0  0  0  0  0  0  0  0  0  0
   52.8700   75.7270   28.0200 C   0  0  0  0  0  0  0  0  0  0  0  0
   54.8100   76.3280   29.5110 C   0  0  0  0  0  0  0  0  0  0  0  0
   55.8520   77.1810   29.8740 C   0  0  0  0  0  0  0  0  0  0  0  0
   56.0680   78.3570   29.1600 C   0  0  0  0  0  0  0  0  0  0  0  0
   57.0820   79.1490   29.5430 F   0  0  0  0  0  0  0  0  0  0  0  0
   54.1330   77.8201   25.1116 H   0  0  0  0  0  0  0  0  0  0  0  0
   53.0911   77.6745   23.6556 H   0  0  0  0  0  0  0  0  0  0  0  0
   54.4805   78.8130   23.6556 H   0  0  0  0  0  0  0  0  0  0  0  0
   52.0690   79.2016   22.1426 H   0  0  0  0  0  0  0  0  0  0  0  0
   51.5499   83.4719   21.6702 H   0  0  0  0  0  0  0  0  0  0  0  0
   52.2374   83.8281   24.0525 H   0  0  0  0  0  0  0  0  0  0  0  0
   53.4130   80.2390   27.1160 H   0  0  0  0  0  0  0  0  0  0  0  0
   53.5700   78.0887   26.8627 H   0  0  0  0  0  0  0  0  0  0  0  0
   52.3797   75.3144   28.9141 H   0  0  0  0  0  0  0  0  0  0  0  0
   52.1326   76.2804   27.4199 H   0  0  0  0  0  0  0  0  0  0  0  0
   53.2892   74.9059   27.4199 H   0  0  0  0  0  0  0  0  0  0  0  0
   54.6450   75.3949   30.0697 H   0  0  0  0  0  0  0  0  0  0  0  0
   56.5025   76.9252   30.7233 H   0  0  0  0  0  0  0  0  0  0  0  0
  1  2  1  0
  2  3  1  0
  3  4  1  0
  4  5  2  0
  5  6  1  0
  5  7  1  0
  7  8  2  0
  8  9  1  0
  9 10  1  0
 10 11  1  0
 11 12  2  0
 11 13  1  0
 13 14  1  0
 14 15  2  0
 14 16  1  0
 16 17  1  0
 17 18  2  0
 18 19  1  0
 18 20  1  0
 20 21  2  0
 21 22  1  0
 22 23  1  0
  9  3  2  0
 22 16  2  0
  1 24  1  0
  1 25  1  0
  1 26  1  0
  4 27  1  0
  7 28  1  0
  8 29  1  0
 13 30  1  0
 17 31  1  0
 19 32  1  0
 19 33  1  0
 19 34  1  0
 20 35  1  0
 21 36  1  0
M  END
>  <meeko>  (1) 
{"is_sidechain": false}

>  <smiles>  (1) 
COc1cc(F)ccc1OC(=O)NC(=O)c1cc(C)ccc1F

>  <vina_score>  (1) 
-8.186

>  <job_id>  (1) 
970c0fd4a4b68dc6

$$$$
