
     RDKit          3D

 43 45  0  0  0  0  0  0  0  0999 V2000
   62.2700   81.8110   35.8830 C   0  0  0  0  0  0  0  0  0  0  0  0
   61.9790   81.5630   34.4820 N   0  0  0  0  0  0  0  0  0  0  0  0
   63.0760   80.9820   33.7180 C   0  0  0  0  0  0  0  0  0  0  0  0
   60.6610   81.2460   34.1700 C   0  0  0  0  0  0  0  0  0  0  0  0
   59.8290   80.9820   35.0360 O   0  0  0  0  0  0  0  0  0  0  0  0
   60.3360   81.2480   32.8190 N   0  0  0  0  0  0  0  0  0  0  0  0
   60.6600   82.4120   31.9930 C   0  0  0  0  0  0  0  0  0  0  0  0
   60.7700   82.0190   30.5190 C   0  0  0  0  0  0  0  0  0  0  0  0
   59.6180   81.1680   30.0830 C   0  0  0  0  0  0  0  0  0  0  0  0
   59.3080   80.9730   28.7570 C   0  0  0  0  0  0  0  0  0  0  0  0
   58.3040   80.1880   28.3360 N   0  0  0  0  0  0  0  0  0  0  0  0
   57.5840   79.5680   29.2740 C   0  0  0  0  0  0  0  0  0  0  0  0
   56.5270   78.7300   28.9570 N   0  0  0  0  0  0  0  0  0  0  0  0
   55.4800   79.0250   28.1200 C   0  0  0  0  0  0  0  0  0  0  0  0
   55.2610   80.0870   27.5530 O   0  0  0  0  0  0  0  0  0  0  0  0
   54.4990   77.9160   27.9400 C   0  0  0  0  0  0  0  0  0  0  0  0
   53.4700   77.9820   26.9890 C   0  0  0  0  0  0  0  0  0  0  0  0
   52.5740   76.9190   26.8560 C   0  0  0  0  0  0  0  0  0  0  0  0
   52.6950   75.7950   27.6740 C   0  0  0  0  0  0  0  0  0  0  0  0
   53.7050   75.7320   28.6330 C   0  0  0  0  0  0  0  0  0  0  0  0
   54.6020   76.7920   28.7700 C   0  0  0  0  0  0  0  0  0  0  0  0
   57.8100   79.6750   30.5930 N   0  0  0  0  0  0  0  0  0  0  0  0
   58.8340   80.4690   30.9860 C   0  0  0  0  0  0  0  0  0  0  0  0
   59.0660   80.6080   32.4760 C   0  0  0  0  0  0  0  0  0  0  0  0
   61.5820   81.2247   36.5098 H   0  0  0  0  0  0  0  0  0  0  0  0
   63.3068   81.5145   36.1002 H   0  0  0  0  0  0  0  0  0  0  0  0
   62.1417   82.8817   36.1002 H   0  0  0  0  0  0  0  0  0  0  0  0
   63.8323   80.5814   34.4090 H   0  0  0  0  0  0  0  0  0  0  0  0
   62.6914   80.1694   33.0842 H   0  0  0  0  0  0  0  0  0  0  0  0
   63.5321   81.7568   33.0842 H   0  0  0  0  0  0  0  0  0  0  0  0
   59.8678   83.1666   32.1068 H   0  0  0  0  0  0  0  0  0  0  0  0
   61.6273   82.8194   32.3222 H   0  0  0  0  0  0  0  0  0  0  0  0
   60.7890   82.9330   29.9073 H   0  0  0  0  0  0  0  0  0  0  0  0
   61.6940   81.4366   30.3885 H   0  0  0  0  0  0  0  0  0  0  0  0
   59.9166   81.4890   27.9998 H   0  0  0  0  0  0  0  0  0  0  0  0
   56.5550   77.8670   29.4720 H   0  0  0  0  0  0  0  0  0  0  0  0
   53.3688   78.8705   26.3484 H   0  0  0  0  0  0  0  0  0  0  0  0
   51.7716   76.9679   26.1052 H   0  0  0  0  0  0  0  0  0  0  0  0
   51.9918   74.9566   27.5619 H   0  0  0  0  0  0  0  0  0  0  0  0
   53.7946   74.8476   29.2809 H   0  0  0  0  0  0  0  0  0  0  0  0
   55.3932   76.7450   29.5327 H   0  0  0  0  0  0  0  0  0  0  0  0
   58.2487   81.2103   32.8995 H   0  0  0  0  0  0  0  0  0  0  0  0
   59.0980   79.5900   32.8914 H   0  0  0  0  0  0  0  0  0  0  0  0
  1  2  1  0
  2  3  1  0
  2  4  1  0
  4  5  2  0
  4  6  1  0
  6  7  1  0
  7  8  1  0
  8  9  1  0
  9 10  2  0
 10 11  1  0
 11 12  2  0
 12 13  1  0
 13 14  1  0
 14 15  2  0
 14 16  1  0
 16 17  2  0
 17 18  1  0
 18 19  2  0
 19 20  1  0
 20 21  2  0
 12 22  1  0
 22 23  2  0
 23 24  1  0
 24  6  1  0
 23  9  1  0
 21 16  1  0
  1 25  1  0
  1 26  1  0
  1 27  1  0
  3 28  1  0
  3 29  1  0
  3 30  1  0
  7 31  1  0
  7 32  1  0
  8 33  1  0
  8 34  1  0
 10 35  1  0
 13 36  1  0
 17 37  1  0
 18 38  1  0
 19 39  1  0
 20 40  1  0
 21 41  1  0
 24 42  1  0
 24 43  1  0
M  END
>  <meeko>  (1) 
{"is_sidechain": false}

>  <smiles>  (1) 
CN(C)C(=O)N1CCc2cnc(NC(=O)c3ccccc3)nc2C1

>  <vina_score>  (1) 
-7.609

>  <job_id>  (1) 
972209b0ce67f1f3

$$$$
