
     RDKit          3D

 55 58  0  0  0  0  0  0  0  0999 V2000
   50.3080   81.3680   21.3030 N   0  0  0  0  0  0  0  0  0  0  0  0
   51.7700   82.1650   21.5160 S   0  0  0  0  0  0  0  0  0  0  0  0
   51.4370   83.5560   21.7150 O   0  0  0  0  0  0  0  0  0  0  0  0
   52.6260   81.7190   20.4420 O   0  0  0  0  0  0  0  0  0  0  0  0
   52.3400   81.4760   23.0420 C   0  0  0  0  0  0  0  0  0  0  0  0
   52.5480   80.0980   23.1460 C   0  0  0  0  0  0  0  0  0  0  0  0
   52.9780   79.5580   24.3610 C   0  0  0  0  0  0  0  0  0  0  0  0
   53.1840   80.3800   25.4780 C   0  0  0  0  0  0  0  0  0  0  0  0
   53.6440   79.8670   26.7030 N   0  0  0  0  0  0  0  0  0  0  0  0
   54.7240   79.2560   26.5450 N   0  0  0  0  0  0  0  0  0  0  0  0
   55.2090   78.7170   27.7430 C   0  0  0  0  0  0  0  0  0  0  0  0
   54.6620   77.6260   28.3810 C   0  0  0  0  0  0  0  0  0  0  0  0
   53.6370   76.8470   28.0480 O   0  0  0  0  0  0  0  0  0  0  0  0
   55.4000   77.4270   29.5220 N   0  0  0  0  0  0  0  0  0  0  0  0
   56.3870   78.3850   29.6390 C   0  0  0  0  0  0  0  0  0  0  0  0
   57.3480   78.5700   30.6400 C   0  0  0  0  0  0  0  0  0  0  0  0
   58.2300   79.6480   30.5000 C   0  0  0  0  0  0  0  0  0  0  0  0
   58.1550   80.5120   29.4000 C   0  0  0  0  0  0  0  0  0  0  0  0
   59.0920   81.6670   29.2540 C   0  0  0  0  0  0  0  0  0  0  0  0
   60.2530   81.4720   28.9130 O   0  0  0  0  0  0  0  0  0  0  0  0
   58.5850   82.9020   29.5550 N   0  0  0  0  0  0  0  0  0  0  0  0
   59.0390   83.5540   30.5650 C   0  0  0  0  0  0  0  0  0  0  0  0
   60.0140   83.3690   31.5120 N   0  0  0  0  0  0  0  0  0  0  0  0
   60.6050   82.1060   31.8820 C   0  0  0  0  0  0  0  0  0  0  0  0
   62.1310   82.4470   32.7880 S   0  0  0  0  0  0  0  0  0  0  0  0
   63.0250   83.2720   31.5240 C   0  0  0  0  0  0  0  0  0  0  0  0
   62.5880   84.2710   30.9660 O   0  0  0  0  0  0  0  0  0  0  0  0
   64.2970   82.6720   31.1820 C   0  0  0  0  0  0  0  0  0  0  0  0
   64.7100   81.3580   31.0190 C   0  0  0  0  0  0  0  0  0  0  0  0
   66.0870   81.3640   30.6830 C   0  0  0  0  0  0  0  0  0  0  0  0
   66.4920   82.6760   30.6450 C   0  0  0  0  0  0  0  0  0  0  0  0
   65.4080   83.4580   30.9430 N   0  0  0  0  0  0  0  0  0  0  0  0
   57.1820   80.3030   28.4070 C   0  0  0  0  0  0  0  0  0  0  0  0
   56.2860   79.2210   28.5250 C   0  0  0  0  0  0  0  0  0  0  0  0
   52.9700   81.7600   25.3550 C   0  0  0  0  0  0  0  0  0  0  0  0
   52.5400   82.3110   24.1450 C   0  0  0  0  0  0  0  0  0  0  0  0
   49.9110   81.6090   20.3950 H   0  0  0  0  0  0  0  0  0  0  0  0
   50.4370   80.3650   21.4450 H   0  0  0  0  0  0  0  0  0  0  0  0
   52.3747   79.4439   22.2787 H   0  0  0  0  0  0  0  0  0  0  0  0
   53.1569   78.4757   24.4420 H   0  0  0  0  0  0  0  0  0  0  0  0
   53.8040   76.4140   27.1960 H   0  0  0  0  0  0  0  0  0  0  0  0
   55.2470   76.6940   30.1980 H   0  0  0  0  0  0  0  0  0  0  0  0
   57.4079   77.8930   31.5049 H   0  0  0  0  0  0  0  0  0  0  0  0
   58.9973   79.8200   31.2692 H   0  0  0  0  0  0  0  0  0  0  0  0
   58.5085   84.5071   30.7069 H   0  0  0  0  0  0  0  0  0  0  0  0
   59.9580   83.9980   32.3070 H   0  0  0  0  0  0  0  0  0  0  0  0
   59.9098   81.5416   32.5209 H   0  0  0  0  0  0  0  0  0  0  0  0
   60.8193   81.5071   30.9846 H   0  0  0  0  0  0  0  0  0  0  0  0
   64.0777   80.4649   31.1312 H   0  0  0  0  0  0  0  0  0  0  0  0
   66.7147   80.4818   30.4888 H   0  0  0  0  0  0  0  0  0  0  0  0
   67.5064   83.0346   30.4160 H   0  0  0  0  0  0  0  0  0  0  0  0
   65.4020   84.4700   30.9850 H   0  0  0  0  0  0  0  0  0  0  0  0
   57.1201   80.9802   27.5424 H   0  0  0  0  0  0  0  0  0  0  0  0
   53.1425   82.4164   26.2207 H   0  0  0  0  0  0  0  0  0  0  0  0
   52.3604   83.3930   24.0612 H   0  0  0  0  0  0  0  0  0  0  0  0
  1  2  1  0
  2  3  2  0
  2  4  2  0
  2  5  1  0
  5  6  1  0
  6  7  2  0
  7  8  1  0
  8  9  1  0
  9 10  2  3
 10 11  1  0
 11 12  2  0
 12 13  1  0
 12 14  1  0
 14 15  1  0
 15 16  2  0
 16 17  1  0
 17 18  2  0
 18 19  1  0
 19 20  2  0
 19 21  1  0
 21 22  2  3
 22 23  1  0
 23 24  1  0
 24 25  1  0
 25 26  1  0
 26 27  2  0
 26 28  1  0
 28 29  2  0
 29 30  1  0
 30 31  2  0
 31 32  1  0
 18 33  1  0
 33 34  2  0
  8 35  2  0
 35 36  1  0
 36  5  2  0
 34 11  1  0
 34 15  1  0
 32 28  1  0
  1 37  1  0
  1 38  1  0
  6 39  1  0
  7 40  1  0
 13 41  1  0
 14 42  1  0
 16 43  1  0
 17 44  1  0
 22 45  1  0
 23 46  1  0
 24 47  1  0
 24 48  1  0
 29 49  1  0
 30 50  1  0
 31 51  1  0
 32 52  1  0
 33 53  1  0
 35 54  1  0
 36 55  1  0
M  END
>  <meeko>  (1) 
{"is_sidechain": false}

>  <smiles>  (1) 
NS(=O)(=O)c1ccc(N=Nc2c(O)[nH]c3ccc(C(=O)N=CNCSC(=O)c4ccc[nH]4)cc23)cc1

>  <vina_score>  (1) 
-7.656

>  <job_id>  (1) 
9772aad4ec6c3be1

$$$$
