
     RDKit          3D

 49 51  0  0  0  0  0  0  0  0999 V2000
   52.9090   81.3570   22.4790 C   0  0  0  0  0  0  0  0  0  0  0  0
   52.8740   80.1180   23.3620 C   0  0  0  0  0  0  0  0  0  0  0  0
   52.7690   80.4430   24.8660 C   0  0  2  0  0  0  0  0  0  0  0  0
   52.1420   81.8310   25.1280 C   0  0  0  0  0  0  0  0  0  0  0  0
   52.9730   82.6440   25.9560 O   0  0  0  0  0  0  0  0  0  0  0  0
   54.1100   80.4300   25.4580 N   0  0  0  0  0  0  0  0  0  0  0  0
   54.4500   79.5970   26.4850 C   0  0  0  0  0  0  0  0  0  0  0  0
   55.5590   80.0050   27.1930 N   0  0  0  0  0  0  0  0  0  0  0  0
   56.0050   79.2810   28.1880 C   0  0  0  0  0  0  0  0  0  0  0  0
   57.2250   79.7580   28.9100 C   0  0  0  0  0  0  0  0  0  0  0  0
   57.3720   79.4250   30.2700 C   0  0  0  0  0  0  0  0  0  0  0  0
   58.4870   79.8570   30.9920 C   0  0  0  0  0  0  0  0  0  0  0  0
   59.4470   80.6260   30.3530 C   0  0  0  0  0  0  0  0  0  0  0  0
   60.5380   81.0480   31.0550 O   0  0  0  0  0  0  0  0  0  0  0  0
   59.3060   80.9690   29.0110 C   0  0  0  0  0  0  0  0  0  0  0  0
   60.2920   81.7320   28.4450 O   0  0  0  0  0  0  0  0  0  0  0  0
   58.1970   80.5500   28.2830 C   0  0  0  0  0  0  0  0  0  0  0  0
   55.2950   78.1190   28.5060 N   0  0  0  0  0  0  0  0  0  0  0  0
   55.5790   77.2800   29.5260 N   0  0  0  0  0  0  0  0  0  0  0  0
   54.6150   76.3580   29.4380 C   0  0  0  0  0  0  0  0  0  0  0  0
   53.7090   76.5990   28.3750 C   0  0  0  0  0  0  0  0  0  0  0  0
   52.5180   75.7720   27.9910 C   0  0  0  0  0  0  0  0  0  0  0  0
   51.2010   76.4820   28.3140 C   0  0  0  0  0  0  0  0  0  0  0  0
   52.5600   75.3570   26.5200 C   0  0  0  0  0  0  0  0  0  0  0  0
   54.1800   77.7610   27.7960 C   0  0  0  0  0  0  0  0  0  0  0  0
   53.7620   78.5240   26.7580 N   0  0  0  0  0  0  0  0  0  0  0  0
   52.9344   82.2570   23.1109 H   0  0  0  0  0  0  0  0  0  0  0  0
   53.8067   81.3294   21.8439 H   0  0  0  0  0  0  0  0  0  0  0  0
   52.0112   81.3801   21.8439 H   0  0  0  0  0  0  0  0  0  0  0  0
   52.0040   79.5092   23.0749 H   0  0  0  0  0  0  0  0  0  0  0  0
   53.8230   79.5829   23.2100 H   0  0  0  0  0  0  0  0  0  0  0  0
   52.1193   79.6792   25.3183 H   0  0  0  0  0  0  0  0  0  0  0  0
   51.9924   82.3409   24.1649 H   0  0  0  0  0  0  0  0  0  0  0  0
   51.1857   81.6794   25.6500 H   0  0  0  0  0  0  0  0  0  0  0  0
   53.8880   82.3240   25.8530 H   0  0  0  0  0  0  0  0  0  0  0  0
   54.5480   81.3360   25.5840 H   0  0  0  0  0  0  0  0  0  0  0  0
   56.6014   78.8188   30.7688 H   0  0  0  0  0  0  0  0  0  0  0  0
   58.6016   79.5906   32.0531 H   0  0  0  0  0  0  0  0  0  0  0  0
   60.1660   81.5090   31.8340 H   0  0  0  0  0  0  0  0  0  0  0  0
   59.9210   82.6110   28.2470 H   0  0  0  0  0  0  0  0  0  0  0  0
   58.0841   80.8370   27.2271 H   0  0  0  0  0  0  0  0  0  0  0  0
   54.5332   75.4997   30.1211 H   0  0  0  0  0  0  0  0  0  0  0  0
   52.5659   74.8572   28.5999 H   0  0  0  0  0  0  0  0  0  0  0  0
   51.0782   76.5482   29.4051 H   0  0  0  0  0  0  0  0  0  0  0  0
   51.2154   77.4946   27.8845 H   0  0  0  0  0  0  0  0  0  0  0  0
   50.3630   75.9134   27.8845 H   0  0  0  0  0  0  0  0  0  0  0  0
   52.6705   74.2648   26.4502 H   0  0  0  0  0  0  0  0  0  0  0  0
   51.6263   75.6634   26.0258 H   0  0  0  0  0  0  0  0  0  0  0  0
   53.4134   75.8443   26.0258 H   0  0  0  0  0  0  0  0  0  0  0  0
  1  2  1  0
  2  3  1  0
  3  4  1  0
  4  5  1  0
  3  6  1  0
  6  7  1  0
  7  8  1  0
  8  9  2  0
  9 10  1  0
 10 11  1  0
 11 12  2  0
 12 13  1  0
 13 14  1  0
 13 15  2  0
 15 16  1  0
 15 17  1  0
  9 18  1  0
 18 19  1  0
 19 20  2  0
 20 21  1  0
 21 22  1  0
 22 23  1  0
 22 24  1  0
 21 25  2  0
 25 26  1  0
 26  7  2  0
 17 10  2  0
 25 18  1  0
  1 27  1  0
  1 28  1  0
  1 29  1  0
  2 30  1  0
  2 31  1  0
  3 32  1  1
  4 33  1  0
  4 34  1  0
  5 35  1  0
  6 36  1  0
 11 37  1  0
 12 38  1  0
 14 39  1  0
 16 40  1  0
 17 41  1  0
 20 42  1  0
 22 43  1  0
 23 44  1  0
 23 45  1  0
 23 46  1  0
 24 47  1  0
 24 48  1  0
 24 49  1  0
M  END
>  <meeko>  (1) 
{"is_sidechain": false}

>  <smiles>  (1) 
CC[C@H](CO)Nc1nc(-c2ccc(O)c(O)c2)n2ncc(C(C)C)c2n1

>  <vina_score>  (1) 
-8.239

>  <job_id>  (1) 
97d8edec02cdb785

$$$$
