
     RDKit          3D

 43 45  0  0  0  0  0  0  0  0999 V2000
   64.3060   83.0790   33.2470 C   0  0  0  0  0  0  0  0  0  0  0  0
   63.0790   83.4910   32.5710 N   0  0  0  0  0  0  0  0  0  0  0  0
   61.8730   83.0240   33.2860 C   0  0  0  0  0  0  0  0  0  0  0  0
   61.2200   81.7320   32.7400 C   0  0  0  0  0  0  0  0  0  0  0  0
   60.9030   81.8550   31.3060 N   0  0  0  0  0  0  0  0  0  0  0  0
   59.8380   81.1730   30.7430 C   0  0  0  0  0  0  0  0  0  0  0  0
   58.8550   80.5480   31.5240 C   0  0  0  0  0  0  0  0  0  0  0  0
   57.7750   79.8570   30.9530 C   0  0  0  0  0  0  0  0  0  0  0  0
   57.6360   79.7670   29.5650 C   0  0  0  0  0  0  0  0  0  0  0  0
   56.5060   79.0460   28.9660 C   0  0  0  0  0  0  0  0  0  0  0  0
   56.0270   77.8890   29.6080 C   0  0  0  0  0  0  0  0  0  0  0  0
   54.9490   77.1670   29.0940 C   0  0  0  0  0  0  0  0  0  0  0  0
   54.3280   77.5910   27.9250 C   0  0  0  0  0  0  0  0  0  0  0  0
   54.7880   78.7320   27.2700 C   0  0  0  0  0  0  0  0  0  0  0  0
   55.8800   79.4660   27.7710 C   0  0  0  0  0  0  0  0  0  0  0  0
   56.3100   80.6990   27.0130 C   0  0  0  0  0  0  0  0  0  0  0  0
   55.9220   80.6070   25.6470 O   0  0  0  0  0  0  0  0  0  0  0  0
   58.5990   80.3940   28.7700 C   0  0  0  0  0  0  0  0  0  0  0  0
   59.6750   81.0800   29.3520 C   0  0  0  0  0  0  0  0  0  0  0  0
   61.6730   82.8570   30.5510 C   0  0  0  0  0  0  0  0  0  0  0  0
   63.0820   83.0300   31.1650 C   0  0  0  0  0  0  0  0  0  0  0  0
   64.1590   83.1284   34.3360 H   0  0  0  0  0  0  0  0  0  0  0  0
   64.5558   82.0477   32.9571 H   0  0  0  0  0  0  0  0  0  0  0  0
   65.1276   83.7506   32.9571 H   0  0  0  0  0  0  0  0  0  0  0  0
   62.1520   82.8432   34.3345 H   0  0  0  0  0  0  0  0  0  0  0  0
   61.1221   83.8164   33.1509 H   0  0  0  0  0  0  0  0  0  0  0  0
   61.9155   80.8917   32.8821 H   0  0  0  0  0  0  0  0  0  0  0  0
   60.2823   81.5592   33.2885 H   0  0  0  0  0  0  0  0  0  0  0  0
   58.9330   80.6011   32.6199 H   0  0  0  0  0  0  0  0  0  0  0  0
   57.0288   79.3804   31.6057 H   0  0  0  0  0  0  0  0  0  0  0  0
   56.5122   77.5467   30.5340 H   0  0  0  0  0  0  0  0  0  0  0  0
   54.5918   76.2650   29.6125 H   0  0  0  0  0  0  0  0  0  0  0  0
   53.4756   77.0274   27.5178 H   0  0  0  0  0  0  0  0  0  0  0  0
   54.2901   79.0643   26.3471 H   0  0  0  0  0  0  0  0  0  0  0  0
   55.8377   81.5840   27.4643 H   0  0  0  0  0  0  0  0  0  0  0  0
   57.4054   80.7841   27.0659 H   0  0  0  0  0  0  0  0  0  0  0  0
   55.0800   80.1200   25.6180 H   0  0  0  0  0  0  0  0  0  0  0  0
   58.5121   80.3490   27.6744 H   0  0  0  0  0  0  0  0  0  0  0  0
   60.4158   81.5612   28.6965 H   0  0  0  0  0  0  0  0  0  0  0  0
   61.7711   82.5268   29.5063 H   0  0  0  0  0  0  0  0  0  0  0  0
   61.1441   83.8205   30.5952 H   0  0  0  0  0  0  0  0  0  0  0  0
   63.5988   82.0599   31.1212 H   0  0  0  0  0  0  0  0  0  0  0  0
   63.5888   83.8100   30.5779 H   0  0  0  0  0  0  0  0  0  0  0  0
  1  2  1  0
  2  3  1  0
  3  4  1  0
  4  5  1  0
  5  6  1  0
  6  7  1  0
  7  8  2  0
  8  9  1  0
  9 10  1  0
 10 11  2  0
 11 12  1  0
 12 13  2  0
 13 14  1  0
 14 15  2  0
 15 16  1  0
 16 17  1  0
  9 18  2  0
 18 19  1  0
  5 20  1  0
 20 21  1  0
 21  2  1  0
 19  6  2  0
 15 10  1  0
  1 22  1  0
  1 23  1  0
  1 24  1  0
  3 25  1  0
  3 26  1  0
  4 27  1  0
  4 28  1  0
  7 29  1  0
  8 30  1  0
 11 31  1  0
 12 32  1  0
 13 33  1  0
 14 34  1  0
 16 35  1  0
 16 36  1  0
 17 37  1  0
 18 38  1  0
 19 39  1  0
 20 40  1  0
 20 41  1  0
 21 42  1  0
 21 43  1  0
M  END
>  <meeko>  (1) 
{"is_sidechain": false}

>  <smiles>  (1) 
CN1CCN(c2ccc(-c3ccccc3CO)cc2)CC1

>  <vina_score>  (1) 
-7.206

>  <job_id>  (1) 
97fdb86b9b690d85

$$$$
