
     RDKit          3D

 49 52  0  0  0  0  0  0  0  0999 V2000
   52.7290   81.7320   21.8240 C   0  0  0  0  0  0  0  0  0  0  0  0
   52.1640   81.3100   23.1010 N   0  0  0  0  0  0  0  0  0  0  0  0
   52.8600   81.9770   24.2230 C   0  0  0  0  0  0  0  0  0  0  0  0
   52.7780   81.2140   25.5650 C   0  0  0  0  0  0  0  0  0  0  0  0
   53.3880   79.8790   25.4380 N   0  0  0  0  0  0  0  0  0  0  0  0
   53.9140   79.1990   26.5340 C   0  0  0  0  0  0  0  0  0  0  0  0
   53.1620   78.1370   27.1600 C   0  0  0  0  0  0  0  0  0  0  0  0
   53.5830   77.3740   28.2800 C   0  0  0  0  0  0  0  0  0  0  0  0
   54.8440   77.7370   28.7690 C   0  0  0  0  0  0  0  0  0  0  0  0
   55.5450   77.2360   29.7990 N   0  0  0  0  0  0  0  0  0  0  0  0
   56.6850   77.9560   29.8130 N   0  0  0  0  0  0  0  0  0  0  0  0
   56.7660   78.9190   28.8370 C   0  0  0  0  0  0  0  0  0  0  0  0
   57.8400   79.7730   28.6740 N   0  0  0  0  0  0  0  0  0  0  0  0
   58.6190   80.1880   29.7390 C   0  0  0  0  0  0  0  0  0  0  0  0
   58.4320   79.8590   30.9100 O   0  0  0  0  0  0  0  0  0  0  0  0
   59.7560   81.1080   29.3340 C   0  0  0  0  0  0  0  0  0  0  0  0
   59.7670   82.3930   30.1280 C   0  0  0  0  0  0  0  0  0  0  0  0
   58.5600   83.0980   30.2790 C   0  0  0  0  0  0  0  0  0  0  0  0
   58.5090   84.2790   31.0210 C   0  0  0  0  0  0  0  0  0  0  0  0
   59.6610   84.7720   31.6280 C   0  0  0  0  0  0  0  0  0  0  0  0
   60.8640   84.0790   31.4970 C   0  0  0  0  0  0  0  0  0  0  0  0
   60.9180   82.8950   30.7560 C   0  0  0  0  0  0  0  0  0  0  0  0
   62.4410   82.0820   30.6600 Cl  0  0  0  0  0  0  0  0  0  0  0  0
   55.5910   78.7960   28.1430 C   0  0  0  0  0  0  0  0  0  0  0  0
   55.1920   79.5550   27.0400 C   0  0  0  0  0  0  0  0  0  0  0  0
   53.3460   79.2650   24.0990 C   0  0  0  0  0  0  0  0  0  0  0  0
   52.1830   79.8400   23.2550 C   0  0  0  0  0  0  0  0  0  0  0  0
   53.5984   82.3813   22.0044 H   0  0  0  0  0  0  0  0  0  0  0  0
   53.0448   80.8469   21.2523 H   0  0  0  0  0  0  0  0  0  0  0  0
   51.9699   82.2860   21.2523 H   0  0  0  0  0  0  0  0  0  0  0  0
   53.9208   82.0876   23.9537 H   0  0  0  0  0  0  0  0  0  0  0  0
   52.3558   82.9423   24.3777 H   0  0  0  0  0  0  0  0  0  0  0  0
   53.3129   81.7842   26.3388 H   0  0  0  0  0  0  0  0  0  0  0  0
   51.7203   81.0967   25.8433 H   0  0  0  0  0  0  0  0  0  0  0  0
   52.1773   77.8988   26.7315 H   0  0  0  0  0  0  0  0  0  0  0  0
   52.9750   76.5715   28.7231 H   0  0  0  0  0  0  0  0  0  0  0  0
   57.3940   77.7540   30.5130 H   0  0  0  0  0  0  0  0  0  0  0  0
   58.0870   80.0520   27.7300 H   0  0  0  0  0  0  0  0  0  0  0  0
   60.7095   80.5841   29.4965 H   0  0  0  0  0  0  0  0  0  0  0  0
   59.6153   81.3692   28.2748 H   0  0  0  0  0  0  0  0  0  0  0  0
   57.6441   82.7138   29.8063 H   0  0  0  0  0  0  0  0  0  0  0  0
   57.5576   84.8209   31.1264 H   0  0  0  0  0  0  0  0  0  0  0  0
   59.6223   85.7052   32.2091 H   0  0  0  0  0  0  0  0  0  0  0  0
   61.7742   84.4657   31.9788 H   0  0  0  0  0  0  0  0  0  0  0  0
   55.8102   80.3538   26.6043 H   0  0  0  0  0  0  0  0  0  0  0  0
   54.2966   79.4647   23.5829 H   0  0  0  0  0  0  0  0  0  0  0  0
   53.1883   78.1828   24.2172 H   0  0  0  0  0  0  0  0  0  0  0  0
   52.2440   79.3964   22.2503 H   0  0  0  0  0  0  0  0  0  0  0  0
   51.2632   79.5855   23.8021 H   0  0  0  0  0  0  0  0  0  0  0  0
  1  2  1  0
  2  3  1  0
  3  4  1  0
  4  5  1  0
  5  6  1  0
  6  7  1  0
  7  8  2  0
  8  9  1  0
  9 10  2  0
 10 11  1  0
 11 12  1  0
 12 13  1  0
 13 14  1  0
 14 15  2  0
 14 16  1  0
 16 17  1  0
 17 18  2  0
 18 19  1  0
 19 20  2  0
 20 21  1  0
 21 22  2  0
 22 23  1  0
 12 24  2  0
 24 25  1  0
  5 26  1  0
 26 27  1  0
 27  2  1  0
 25  6  2  0
 24  9  1  0
 22 17  1  0
  1 28  1  0
  1 29  1  0
  1 30  1  0
  3 31  1  0
  3 32  1  0
  4 33  1  0
  4 34  1  0
  7 35  1  0
  8 36  1  0
 11 37  1  0
 13 38  1  0
 16 39  1  0
 16 40  1  0
 18 41  1  0
 19 42  1  0
 20 43  1  0
 21 44  1  0
 25 45  1  0
 26 46  1  0
 26 47  1  0
 27 48  1  0
 27 49  1  0
M  END
>  <meeko>  (1) 
{"is_sidechain": false}

>  <smiles>  (1) 
CN1CCN(c2ccc3n[nH]c(NC(=O)Cc4ccccc4Cl)c3c2)CC1

>  <vina_score>  (1) 
-9.154

>  <job_id>  (1) 
982539071aeecd2c

$$$$
