
     RDKit          3D

 43 45  0  0  0  0  0  0  0  0999 V2000
   52.3180   75.2940   26.4640 C   0  0  0  0  0  0  0  0  0  0  0  0
   52.1860   76.1820   27.6780 C   0  0  0  0  0  0  0  0  0  0  0  0
   51.1860   76.1070   28.3910 O   0  0  0  0  0  0  0  0  0  0  0  0
   53.2380   77.0500   27.9410 N   0  0  0  0  0  0  0  0  0  0  0  0
   53.8750   76.9870   29.2530 C   0  0  0  0  0  0  0  0  0  0  0  0
   55.3820   77.2040   29.1480 C   0  0  0  0  0  0  0  0  0  0  0  0
   55.7060   78.4520   28.3670 C   0  0  0  0  0  0  0  0  0  0  0  0
   56.9410   79.0970   28.5530 C   0  0  0  0  0  0  0  0  0  0  0  0
   57.2930   80.2320   27.8150 C   0  0  0  0  0  0  0  0  0  0  0  0
   58.4730   80.9450   28.0200 N   0  0  0  0  0  0  0  0  0  0  0  0
   59.2630   80.7230   29.2340 C   0  0  0  0  0  0  0  0  0  0  0  0
   58.9730   81.8310   30.2460 C   0  0  0  0  0  0  0  0  0  0  0  0
   58.6340   82.9640   29.8930 O   0  0  0  0  0  0  0  0  0  0  0  0
   59.1390   81.5340   31.7010 C   0  0  0  0  0  0  0  0  0  0  0  0
   58.0510   81.2570   32.5390 C   0  0  0  0  0  0  0  0  0  0  0  0
   58.2630   80.9830   33.8930 C   0  0  0  0  0  0  0  0  0  0  0  0
   59.5550   80.9820   34.4170 C   0  0  0  0  0  0  0  0  0  0  0  0
   60.6420   81.2520   33.5870 C   0  0  0  0  0  0  0  0  0  0  0  0
   60.4350   81.5250   32.2340 C   0  0  0  0  0  0  0  0  0  0  0  0
   56.3450   80.7460   26.9220 C   0  0  0  0  0  0  0  0  0  0  0  0
   55.1200   80.1060   26.7140 C   0  0  0  0  0  0  0  0  0  0  0  0
   54.7930   78.9440   27.4230 C   0  0  0  0  0  0  0  0  0  0  0  0
   53.4610   78.2750   27.1740 C   0  0  0  0  0  0  0  0  0  0  0  0
   52.4727   74.2536   26.7858 H   0  0  0  0  0  0  0  0  0  0  0  0
   51.4004   75.3587   25.8609 H   0  0  0  0  0  0  0  0  0  0  0  0
   53.1771   75.6228   25.8609 H   0  0  0  0  0  0  0  0  0  0  0  0
   53.4446   77.7670   29.8982 H   0  0  0  0  0  0  0  0  0  0  0  0
   53.6965   75.9884   29.6783 H   0  0  0  0  0  0  0  0  0  0  0  0
   55.8014   77.2968   30.1607 H   0  0  0  0  0  0  0  0  0  0  0  0
   55.8194   76.3431   28.6211 H   0  0  0  0  0  0  0  0  0  0  0  0
   57.6475   78.6997   29.2966 H   0  0  0  0  0  0  0  0  0  0  0  0
   59.0740   80.9940   27.1940 H   0  0  0  0  0  0  0  0  0  0  0  0
   58.9963   79.7494   29.6711 H   0  0  0  0  0  0  0  0  0  0  0  0
   60.3331   80.7325   28.9795 H   0  0  0  0  0  0  0  0  0  0  0  0
   57.0294   81.2552   32.1311 H   0  0  0  0  0  0  0  0  0  0  0  0
   57.4064   80.7671   34.5484 H   0  0  0  0  0  0  0  0  0  0  0  0
   59.7164   80.7685   35.4839 H   0  0  0  0  0  0  0  0  0  0  0  0
   61.6623   81.2499   33.9982 H   0  0  0  0  0  0  0  0  0  0  0  0
   61.2953   81.7346   31.5814 H   0  0  0  0  0  0  0  0  0  0  0  0
   56.5689   81.6725   26.3729 H   0  0  0  0  0  0  0  0  0  0  0  0
   54.4061   80.5193   25.9863 H   0  0  0  0  0  0  0  0  0  0  0  0
   52.6655   78.9897   27.4315 H   0  0  0  0  0  0  0  0  0  0  0  0
   53.4544   77.9824   26.1137 H   0  0  0  0  0  0  0  0  0  0  0  0
  1  2  1  0
  2  3  2  0
  2  4  1  0
  4  5  1  0
  5  6  1  0
  6  7  1  0
  7  8  1  0
  8  9  2  0
  9 10  1  0
 10 11  1  0
 11 12  1  0
 12 13  2  0
 12 14  1  0
 14 15  2  0
 15 16  1  0
 16 17  2  0
 17 18  1  0
 18 19  2  0
  9 20  1  0
 20 21  2  0
 21 22  1  0
 22 23  1  0
 23  4  1  0
 22  7  2  0
 19 14  1  0
  1 24  1  0
  1 25  1  0
  1 26  1  0
  5 27  1  0
  5 28  1  0
  6 29  1  0
  6 30  1  0
  8 31  1  0
 10 32  1  0
 11 33  1  0
 11 34  1  0
 15 35  1  0
 16 36  1  0
 17 37  1  0
 18 38  1  0
 19 39  1  0
 20 40  1  0
 21 41  1  0
 23 42  1  0
 23 43  1  0
M  END
>  <meeko>  (1) 
{"is_sidechain": false}

>  <smiles>  (1) 
CC(=O)N1CCc2cc(NCC(=O)c3ccccc3)ccc2C1

>  <vina_score>  (1) 
-8.417

>  <job_id>  (1) 
9832a3031458b41c

$$$$
