
     RDKit          3D

 57 60  0  0  0  0  0  0  0  0999 V2000
   66.4350   86.1300   28.0190 C   0  0  0  0  0  0  0  0  0  0  0  0
   64.9350   86.0790   28.3440 C   0  0  0  0  0  0  0  0  0  0  0  0
   64.2680   87.3980   27.9340 C   0  0  0  0  0  0  0  0  0  0  0  0
   64.7270   85.6630   29.7440 N   0  0  0  0  0  0  0  0  0  0  0  0
   63.8740   86.5750   30.5430 C   0  0  0  0  0  0  0  0  0  0  0  0
   63.7780   86.1120   32.0120 C   0  0  0  0  0  0  0  0  0  0  0  0
   63.2880   84.7350   32.0950 N   0  0  0  0  0  0  0  0  0  0  0  0
   61.9100   84.5580   32.2300 C   0  0  0  0  0  0  0  0  0  0  0  0
   61.1010   85.4820   32.2380 O   0  0  0  0  0  0  0  0  0  0  0  0
   61.3830   83.1860   32.4040 C   0  0  0  0  0  0  0  0  0  0  0  0
   61.6300   82.4680   33.5700 C   0  0  0  0  0  0  0  0  0  0  0  0
   61.0800   81.2070   33.6670 C   0  0  0  0  0  0  0  0  0  0  0  0
   60.3170   80.6490   32.7020 N   0  0  0  0  0  0  0  0  0  0  0  0
   60.0580   81.3750   31.5870 C   0  0  0  0  0  0  0  0  0  0  0  0
   59.1970   80.7360   30.5880 C   0  0  0  0  0  0  0  0  0  0  0  0
   59.3110   80.6900   29.2110 C   0  0  0  0  0  0  0  0  0  0  0  0
   58.3340   79.9810   28.5380 N   0  0  0  0  0  0  0  0  0  0  0  0
   57.4530   79.4920   29.3900 C   0  0  0  0  0  0  0  0  0  0  0  0
   56.2810   78.6850   28.9830 C   0  0  0  0  0  0  0  0  0  0  0  0
   55.9350   77.4600   29.5790 C   0  0  0  0  0  0  0  0  0  0  0  0
   54.8110   76.7390   29.1540 C   0  0  0  0  0  0  0  0  0  0  0  0
   54.0130   77.2460   28.1280 C   0  0  0  0  0  0  0  0  0  0  0  0
   52.6120   76.3230   27.5680 S   0  0  0  0  0  0  0  0  0  0  0  0
   53.0500   74.7530   27.9690 N   0  0  0  0  0  0  0  0  0  0  0  0
   52.5600   76.3650   26.1250 O   0  0  0  0  0  0  0  0  0  0  0  0
   51.4710   76.6400   28.3950 O   0  0  0  0  0  0  0  0  0  0  0  0
   54.3370   78.4520   27.5110 C   0  0  0  0  0  0  0  0  0  0  0  0
   55.4610   79.1650   27.9420 C   0  0  0  0  0  0  0  0  0  0  0  0
   57.7890   79.8570   31.0390 S   0  0  0  0  0  0  0  0  0  0  0  0
   60.5700   82.6510   31.4040 C   0  0  0  0  0  0  0  0  0  0  0  0
   64.1180   83.8040   31.3200 C   0  0  0  0  0  0  0  0  0  0  0  0
   64.2320   84.2730   29.8490 C   0  0  0  0  0  0  0  0  0  0  0  0
   67.0125   86.1496   28.9550 H   0  0  0  0  0  0  0  0  0  0  0  0
   66.7140   85.2408   27.4346 H   0  0  0  0  0  0  0  0  0  0  0  0
   66.6530   87.0361   27.4346 H   0  0  0  0  0  0  0  0  0  0  0  0
   64.4275   85.3054   27.7490 H   0  0  0  0  0  0  0  0  0  0  0  0
   63.9835   87.9607   28.8353 H   0  0  0  0  0  0  0  0  0  0  0  0
   64.9726   87.9949   27.3363 H   0  0  0  0  0  0  0  0  0  0  0  0
   63.3696   87.1843   27.3363 H   0  0  0  0  0  0  0  0  0  0  0  0
   64.3057   87.5863   30.5138 H   0  0  0  0  0  0  0  0  0  0  0  0
   62.8623   86.5703   30.1113 H   0  0  0  0  0  0  0  0  0  0  0  0
   64.7752   86.1678   32.4730 H   0  0  0  0  0  0  0  0  0  0  0  0
   63.0723   86.7686   32.5419 H   0  0  0  0  0  0  0  0  0  0  0  0
   62.2400   82.8896   34.3825 H   0  0  0  0  0  0  0  0  0  0  0  0
   61.2731   80.6240   34.5796 H   0  0  0  0  0  0  0  0  0  0  0  0
   60.1343   81.1903   28.6800 H   0  0  0  0  0  0  0  0  0  0  0  0
   56.5573   77.0603   30.3932 H   0  0  0  0  0  0  0  0  0  0  0  0
   54.5592   75.7783   29.6269 H   0  0  0  0  0  0  0  0  0  0  0  0
   52.2140   74.1780   28.0840 H   0  0  0  0  0  0  0  0  0  0  0  0
   53.6600   74.7610   28.7860 H   0  0  0  0  0  0  0  0  0  0  0  0
   53.7143   78.8406   26.6917 H   0  0  0  0  0  0  0  0  0  0  0  0
   55.7101   80.1208   27.4579 H   0  0  0  0  0  0  0  0  0  0  0  0
   60.3412   83.2260   30.4946 H   0  0  0  0  0  0  0  0  0  0  0  0
   65.1232   83.7596   31.7645 H   0  0  0  0  0  0  0  0  0  0  0  0
   63.6494   82.8090   31.3403 H   0  0  0  0  0  0  0  0  0  0  0  0
   64.9284   83.6076   29.3177 H   0  0  0  0  0  0  0  0  0  0  0  0
   63.2268   84.2372   29.4036 H   0  0  0  0  0  0  0  0  0  0  0  0
  1  2  1  0
  2  3  1  0
  2  4  1  0
  4  5  1  0
  5  6  1  0
  6  7  1  0
  7  8  1  0
  8  9  2  0
  8 10  1  0
 10 11  2  0
 11 12  1  0
 12 13  2  0
 13 14  1  0
 14 15  1  0
 15 16  2  0
 16 17  1  0
 17 18  2  0
 18 19  1  0
 19 20  1  0
 20 21  2  0
 21 22  1  0
 22 23  1  0
 23 24  1  0
 23 25  2  0
 23 26  2  0
 22 27  2  0
 27 28  1  0
 18 29  1  0
 14 30  2  0
  7 31  1  0
 31 32  1  0
 32  4  1  0
 30 10  1  0
 29 15  1  0
 28 19  2  0
  1 33  1  0
  1 34  1  0
  1 35  1  0
  2 36  1  0
  3 37  1  0
  3 38  1  0
  3 39  1  0
  5 40  1  0
  5 41  1  0
  6 42  1  0
  6 43  1  0
 11 44  1  0
 12 45  1  0
 16 46  1  0
 20 47  1  0
 21 48  1  0
 24 49  1  0
 24 50  1  0
 27 51  1  0
 28 52  1  0
 30 53  1  0
 31 54  1  0
 31 55  1  0
 32 56  1  0
 32 57  1  0
M  END
>  <meeko>  (1) 
{"is_sidechain": false}

>  <smiles>  (1) 
CC(C)N1CCN(C(=O)c2ccnc(-c3cnc(-c4ccc(S(N)(=O)=O)cc4)s3)c2)CC1

>  <vina_score>  (1) 
-7.863

>  <job_id>  (1) 
994854ca5a9285a3

$$$$
