
     RDKit          3D

 61 64  0  0  0  0  0  0  0  0999 V2000
   52.3690   75.3580   26.8210 C   0  0  0  0  0  0  0  0  0  0  0  0
   52.4130   76.2740   28.0350 C   0  0  0  0  0  0  0  0  0  0  0  0
   53.8000   76.6670   28.4000 C   0  0  0  0  0  0  0  0  0  0  0  0
   54.7410   75.9280   29.1390 C   0  0  0  0  0  0  0  0  0  0  0  0
   55.8980   76.5640   29.3010 N   0  0  0  0  0  0  0  0  0  0  0  0
   55.7360   77.7550   28.6470 N   0  0  0  0  0  0  0  0  0  0  0  0
   56.6650   78.8210   28.4890 C   0  0  0  0  0  0  0  0  0  0  0  0
   57.9630   78.7570   29.0180 N   0  0  0  0  0  0  0  0  0  0  0  0
   58.9350   79.8370   28.9980 C   0  0  0  0  0  0  0  0  0  0  0  0
   58.6770   80.7510   30.1700 C   0  0  0  0  0  0  0  0  0  0  0  0
   58.3950   80.2330   31.4390 C   0  0  0  0  0  0  0  0  0  0  0  0
   58.1870   81.0870   32.5170 C   0  0  0  0  0  0  0  0  0  0  0  0
   58.2730   82.4640   32.3220 C   0  0  0  0  0  0  0  0  0  0  0  0
   58.5650   83.0010   31.0810 N   0  0  0  0  0  0  0  0  0  0  0  0
   58.6550   84.2580   30.9230 O   0  0  0  0  0  0  0  0  0  0  0  0
   58.7650   82.1390   30.0180 C   0  0  0  0  0  0  0  0  0  0  0  0
   56.2550   79.9010   27.8000 C   0  0  0  0  0  0  0  0  0  0  0  0
   54.8460   79.9520   27.2680 C   0  0  0  0  0  0  0  0  0  0  0  0
   54.3950   81.0950   26.5980 N   0  0  0  0  0  0  0  0  0  0  0  0
   55.3900   82.1170   26.2200 C   0  0  0  0  0  0  0  0  0  0  0  0
   54.7600   83.5050   26.1890 C   0  0  0  0  0  0  0  0  0  0  0  0
   53.5200   83.5450   25.3070 C   0  0  0  0  0  0  0  0  0  0  0  0
   52.5370   82.4630   25.7400 C   0  0  0  0  0  0  0  0  0  0  0  0
   53.1680   81.0580   25.7680 C   0  0  1  0  0  0  0  0  0  0  0  0
   53.4360   80.5330   24.3390 C   0  0  0  0  0  0  0  0  0  0  0  0
   52.2620   80.6330   23.3610 C   0  0  0  0  0  0  0  0  0  0  0  0
   52.5570   81.7050   21.9090 S   0  0  0  0  0  0  0  0  0  0  0  0
   51.0610   81.3700   20.9570 C   0  0  0  0  0  0  0  0  0  0  0  0
   49.9260   81.3590   21.7990 O   0  0  0  0  0  0  0  0  0  0  0  0
   54.0220   78.9390   27.4050 N   0  0  0  0  0  0  0  0  0  0  0  0
   54.4530   77.8430   28.0920 C   0  0  0  0  0  0  0  0  0  0  0  0
   52.3187   74.3107   27.1535 H   0  0  0  0  0  0  0  0  0  0  0  0
   51.4811   75.5936   26.2159 H   0  0  0  0  0  0  0  0  0  0  0  0
   53.2754   75.5074   26.2159 H   0  0  0  0  0  0  0  0  0  0  0  0
   51.8354   77.1833   27.8123 H   0  0  0  0  0  0  0  0  0  0  0  0
   51.9861   75.7230   28.8860 H   0  0  0  0  0  0  0  0  0  0  0  0
   54.5404   74.9246   29.5426 H   0  0  0  0  0  0  0  0  0  0  0  0
   58.3700   77.8270   28.9690 H   0  0  0  0  0  0  0  0  0  0  0  0
   59.9505   79.4207   29.0714 H   0  0  0  0  0  0  0  0  0  0  0  0
   58.8438   80.4020   28.0586 H   0  0  0  0  0  0  0  0  0  0  0  0
   58.3375   79.1442   31.5848 H   0  0  0  0  0  0  0  0  0  0  0  0
   57.9571   80.6797   33.5126 H   0  0  0  0  0  0  0  0  0  0  0  0
   58.1049   83.1392   33.1740 H   0  0  0  0  0  0  0  0  0  0  0  0
   58.9994   82.5556   29.0273 H   0  0  0  0  0  0  0  0  0  0  0  0
   56.9434   80.7411   27.6261 H   0  0  0  0  0  0  0  0  0  0  0  0
   56.2098   82.1100   26.9534 H   0  0  0  0  0  0  0  0  0  0  0  0
   55.7710   81.8816   25.2153 H   0  0  0  0  0  0  0  0  0  0  0  0
   54.4775   83.7905   27.2131 H   0  0  0  0  0  0  0  0  0  0  0  0
   55.4983   84.2056   25.7718 H   0  0  0  0  0  0  0  0  0  0  0  0
   53.0401   84.5306   25.3977 H   0  0  0  0  0  0  0  0  0  0  0  0
   53.8144   83.3682   24.2620 H   0  0  0  0  0  0  0  0  0  0  0  0
   52.1715   82.7040   26.7491 H   0  0  0  0  0  0  0  0  0  0  0  0
   51.7204   82.4441   25.0032 H   0  0  0  0  0  0  0  0  0  0  0  0
   52.4633   80.3466   26.2234 H   0  0  0  0  0  0  0  0  0  0  0  0
   54.2744   81.1086   23.9198 H   0  0  0  0  0  0  0  0  0  0  0  0
   53.6420   79.4581   24.4495 H   0  0  0  0  0  0  0  0  0  0  0  0
   52.0335   79.6204   22.9971 H   0  0  0  0  0  0  0  0  0  0  0  0
   51.4337   81.0927   23.9201 H   0  0  0  0  0  0  0  0  0  0  0  0
   50.9364   82.1515   20.1930 H   0  0  0  0  0  0  0  0  0  0  0  0
   51.1580   80.3832   20.4807 H   0  0  0  0  0  0  0  0  0  0  0  0
   49.4060   80.5900   21.5070 H   0  0  0  0  0  0  0  0  0  0  0  0
  1  2  1  0
  2  3  1  0
  3  4  1  0
  4  5  2  0
  5  6  1  0
  6  7  1  0
  7  8  1  0
  8  9  1  0
  9 10  1  0
 10 11  1  0
 11 12  2  0
 12 13  1  0
 13 14  2  0
 14 15  1  0
 14 16  1  0
  7 17  2  0
 17 18  1  0
 18 19  1  0
 19 20  1  0
 20 21  1  0
 21 22  1  0
 22 23  1  0
 23 24  1  0
 24 25  1  0
 25 26  1  0
 26 27  1  0
 27 28  1  0
 28 29  1  0
 18 30  2  0
 30 31  1  0
 31  3  2  0
 31  6  1  0
 16 10  2  0
 24 19  1  0
  1 32  1  0
  1 33  1  0
  1 34  1  0
  2 35  1  0
  2 36  1  0
  4 37  1  0
  8 38  1  0
  9 39  1  0
  9 40  1  0
 11 41  1  0
 12 42  1  0
 13 43  1  0
 16 44  1  0
 17 45  1  0
 20 46  1  0
 20 47  1  0
 21 48  1  0
 21 49  1  0
 22 50  1  0
 22 51  1  0
 23 52  1  0
 23 53  1  0
 24 54  1  1
 25 55  1  0
 25 56  1  0
 26 57  1  0
 26 58  1  0
 28 59  1  0
 28 60  1  0
 29 61  1  0
M  CHG  2  14   1  15  -1
M  END
>  <meeko>  (1) 
{"is_sidechain": false}

>  <smiles>  (1) 
CCc1cnn2c(NCc3ccc[n+]([O-])c3)cc(N3CCCC[C@H]3CCSCO)nc12

>  <vina_score>  (1) 
-9.273

>  <job_id>  (1) 
996842bd681e838d

$$$$
