
     RDKit          3D

 38 39  0  0  0  0  0  0  0  0999 V2000
   52.9350   81.0490   22.9900 C   0  0  0  0  0  0  0  0  0  0  0  0
   53.2020   80.5440   24.3770 C   0  0  0  0  0  0  0  0  0  0  0  0
   53.0880   81.4000   25.4780 C   0  0  0  0  0  0  0  0  0  0  0  0
   53.3080   80.9240   26.7710 C   0  0  0  0  0  0  0  0  0  0  0  0
   53.6390   79.5800   26.9900 C   0  0  0  0  0  0  0  0  0  0  0  0
   53.8540   79.0680   28.3950 C   0  0  0  0  0  0  0  0  0  0  0  0
   54.1840   77.6450   28.4140 N   0  0  0  0  0  0  0  0  0  0  0  0
   53.1320   76.7170   28.0200 C   0  0  0  0  0  0  0  0  0  0  0  0
   55.4160   77.2670   28.9400 C   0  0  0  0  0  0  0  0  0  0  0  0
   55.6880   76.1240   29.3020 O   0  0  0  0  0  0  0  0  0  0  0  0
   56.4810   78.2830   29.0690 C   0  0  0  0  0  0  0  0  0  0  0  0
   56.8400   78.7320   30.3430 C   0  0  0  0  0  0  0  0  0  0  0  0
   57.8630   79.6720   30.4820 C   0  0  0  0  0  0  0  0  0  0  0  0
   58.5390   80.1510   29.3510 C   0  0  0  0  0  0  0  0  0  0  0  0
   59.6200   81.1470   29.5500 C   0  0  0  0  0  0  0  0  0  0  0  0
   60.0890   81.4860   30.6190 O   0  0  0  0  0  0  0  0  0  0  0  0
   60.0590   81.6780   28.3950 O   0  0  0  0  0  0  0  0  0  0  0  0
   58.1900   79.6780   28.0780 C   0  0  0  0  0  0  0  0  0  0  0  0
   57.1650   78.7380   27.9370 C   0  0  0  0  0  0  0  0  0  0  0  0
   53.7360   78.7200   25.8880 C   0  0  0  0  0  0  0  0  0  0  0  0
   53.5150   79.1980   24.5940 C   0  0  0  0  0  0  0  0  0  0  0  0
   52.4215   82.0202   23.0459 H   0  0  0  0  0  0  0  0  0  0  0  0
   53.8878   81.1684   22.4535 H   0  0  0  0  0  0  0  0  0  0  0  0
   52.2998   80.3288   22.4535 H   0  0  0  0  0  0  0  0  0  0  0  0
   52.8229   82.4563   25.3230 H   0  0  0  0  0  0  0  0  0  0  0  0
   53.2208   81.6101   27.6264 H   0  0  0  0  0  0  0  0  0  0  0  0
   54.6797   79.6303   28.8555 H   0  0  0  0  0  0  0  0  0  0  0  0
   52.9173   79.2072   28.9546 H   0  0  0  0  0  0  0  0  0  0  0  0
   52.6570   76.2980   28.9193 H   0  0  0  0  0  0  0  0  0  0  0  0
   52.3783   77.2498   27.4216 H   0  0  0  0  0  0  0  0  0  0  0  0
   53.5666   75.9027   27.4216 H   0  0  0  0  0  0  0  0  0  0  0  0
   56.3191   78.3466   31.2319 H   0  0  0  0  0  0  0  0  0  0  0  0
   58.1394   80.0378   31.4819 H   0  0  0  0  0  0  0  0  0  0  0  0
   59.2800   81.6270   27.8020 H   0  0  0  0  0  0  0  0  0  0  0  0
   58.7233   80.0470   27.1895 H   0  0  0  0  0  0  0  0  0  0  0  0
   56.8975   78.3578   26.9401 H   0  0  0  0  0  0  0  0  0  0  0  0
   53.9881   77.6605   26.0429 H   0  0  0  0  0  0  0  0  0  0  0  0
   53.5877   78.5102   23.7387 H   0  0  0  0  0  0  0  0  0  0  0  0
  1  2  1  0
  2  3  1  0
  3  4  2  0
  4  5  1  0
  5  6  1  0
  6  7  1  0
  7  8  1  0
  7  9  1  0
  9 10  2  0
  9 11  1  0
 11 12  1  0
 12 13  2  0
 13 14  1  0
 14 15  1  0
 15 16  2  0
 15 17  1  0
 14 18  2  0
 18 19  1  0
  5 20  2  0
 20 21  1  0
 21  2  2  0
 19 11  2  0
  1 22  1  0
  1 23  1  0
  1 24  1  0
  3 25  1  0
  4 26  1  0
  6 27  1  0
  6 28  1  0
  8 29  1  0
  8 30  1  0
  8 31  1  0
 12 32  1  0
 13 33  1  0
 17 34  1  0
 18 35  1  0
 19 36  1  0
 20 37  1  0
 21 38  1  0
M  END
>  <meeko>  (1) 
{"is_sidechain": false}

>  <smiles>  (1) 
Cc1ccc(CN(C)C(=O)c2ccc(C(=O)O)cc2)cc1

>  <vina_score>  (1) 
-8.021

>  <job_id>  (1) 
997c87aed3454370

$$$$
