
     RDKit          3D

 52 54  0  0  0  0  0  0  0  0999 V2000
   51.4350   84.5030   21.0000 C   0  0  0  0  0  0  0  0  0  0  0  0
   50.6830   83.3050   20.9520 O   0  0  0  0  0  0  0  0  0  0  0  0
   51.2060   82.2520   21.6280 C   0  0  0  0  0  0  0  0  0  0  0  0
   50.9970   80.9890   21.1250 C   0  0  0  0  0  0  0  0  0  0  0  0
   50.3450   80.5650   20.0490 O   0  0  0  0  0  0  0  0  0  0  0  0
   51.6020   80.0950   21.9540 N   0  0  0  0  0  0  0  0  0  0  0  0
   52.2150   80.7500   22.9990 C   0  0  0  0  0  0  0  0  0  0  0  0
   52.9410   80.2210   24.0700 C   0  0  0  0  0  0  0  0  0  0  0  0
   53.4680   81.1170   25.0030 C   0  0  0  0  0  0  0  0  0  0  0  0
   53.2850   82.4970   24.8710 C   0  0  0  0  0  0  0  0  0  0  0  0
   53.8950   83.3700   25.9160 C   0  0  0  0  0  0  0  0  0  0  0  0
   53.8770   84.5890   25.8120 O   0  0  0  0  0  0  0  0  0  0  0  0
   54.6230   82.6160   27.3280 S   0  0  0  0  0  0  0  0  0  0  0  0
   56.3130   82.5730   26.7030 C   0  0  0  0  0  0  0  0  0  0  0  0
   57.1740   82.0200   27.7400 N   0  0  0  0  0  0  0  0  0  0  0  0
   57.5240   82.8580   28.7680 N   0  0  0  0  0  0  0  0  0  0  0  0
   58.5410   82.5490   29.4340 N   0  0  0  0  0  0  0  0  0  0  0  0
   59.4260   81.6520   28.8200 N   0  0  0  0  0  0  0  0  0  0  0  0
   59.5650   80.5340   29.3740 N   0  0  0  0  0  0  0  0  0  0  0  0
   58.7070   80.2310   30.4180 C   0  0  0  0  0  0  0  0  0  0  0  0
   58.9430   80.6160   31.5640 O   0  0  0  0  0  0  0  0  0  0  0  0
   57.5630   79.5180   30.0720 N   0  0  0  0  0  0  0  0  0  0  0  0
   57.4790   79.3110   28.8400 N   0  0  0  0  0  0  0  0  0  0  0  0
   56.3110   78.5840   28.5560 C   0  0  0  0  0  0  0  0  0  0  0  0
   55.9390   77.4890   29.3480 C   0  0  0  0  0  0  0  0  0  0  0  0
   54.7640   76.7820   29.0780 C   0  0  0  0  0  0  0  0  0  0  0  0
   53.9500   77.1880   28.0170 C   0  0  0  0  0  0  0  0  0  0  0  0
   52.4600   76.2960   27.6530 S   0  0  0  0  0  0  0  0  0  0  0  0
   52.9340   74.7100   27.9550 N   0  0  0  0  0  0  0  0  0  0  0  0
   51.4620   76.6600   28.6290 O   0  0  0  0  0  0  0  0  0  0  0  0
   52.2210   76.3670   26.2290 O   0  0  0  0  0  0  0  0  0  0  0  0
   54.3070   78.2770   27.2170 C   0  0  0  0  0  0  0  0  0  0  0  0
   55.4830   78.9770   27.4960 C   0  0  0  0  0  0  0  0  0  0  0  0
   52.5410   83.0020   23.7870 C   0  0  0  0  0  0  0  0  0  0  0  0
   51.9900   82.1220   22.8230 C   0  0  0  0  0  0  0  0  0  0  0  0
   51.6111   84.7836   22.0489 H   0  0  0  0  0  0  0  0  0  0  0  0
   52.3999   84.3508   20.4942 H   0  0  0  0  0  0  0  0  0  0  0  0
   50.8785   85.3058   20.4942 H   0  0  0  0  0  0  0  0  0  0  0  0
   49.4690   80.2810   20.3780 H   0  0  0  0  0  0  0  0  0  0  0  0
   51.5940   79.0950   21.8120 H   0  0  0  0  0  0  0  0  0  0  0  0
   53.0921   79.1364   24.1744 H   0  0  0  0  0  0  0  0  0  0  0  0
   54.0389   80.7289   25.8595 H   0  0  0  0  0  0  0  0  0  0  0  0
   56.3606   81.9403   25.8044 H   0  0  0  0  0  0  0  0  0  0  0  0
   56.6439   83.5884   26.4394 H   0  0  0  0  0  0  0  0  0  0  0  0
   58.0150   81.6260   27.3340 H   0  0  0  0  0  0  0  0  0  0  0  0
   56.5777   77.1833   30.1898 H   0  0  0  0  0  0  0  0  0  0  0  0
   54.4829   75.9152   29.6941 H   0  0  0  0  0  0  0  0  0  0  0  0
   52.2240   74.0190   27.7190 H   0  0  0  0  0  0  0  0  0  0  0  0
   53.2350   74.6330   28.9290 H   0  0  0  0  0  0  0  0  0  0  0  0
   53.6674   78.5802   26.3750 H   0  0  0  0  0  0  0  0  0  0  0  0
   55.7615   79.8438   26.8787 H   0  0  0  0  0  0  0  0  0  0  0  0
   52.3867   84.0866   23.6882 H   0  0  0  0  0  0  0  0  0  0  0  0
  1  2  1  0
  2  3  1  0
  3  4  2  0
  4  5  1  0
  4  6  1  0
  6  7  1  0
  7  8  2  0
  8  9  1  0
  9 10  2  0
 10 11  1  0
 11 12  2  0
 11 13  1  0
 13 14  1  0
 14 15  1  0
 15 16  1  0
 16 17  2  3
 17 18  1  0
 18 19  2  3
 19 20  1  0
 20 21  2  0
 20 22  1  0
 22 23  2  3
 23 24  1  0
 24 25  1  0
 25 26  2  0
 26 27  1  0
 27 28  1  0
 28 29  1  0
 28 30  2  0
 28 31  2  0
 27 32  2  0
 32 33  1  0
 10 34  1  0
 34 35  2  0
 35  3  1  0
 35  7  1  0
 33 24  2  0
  1 36  1  0
  1 37  1  0
  1 38  1  0
  5 39  1  0
  6 40  1  0
  8 41  1  0
  9 42  1  0
 14 43  1  0
 14 44  1  0
 15 45  1  0
 25 46  1  0
 26 47  1  0
 29 48  1  0
 29 49  1  0
 32 50  1  0
 33 51  1  0
 34 52  1  0
M  END
>  <meeko>  (1) 
{"is_sidechain": false}

>  <smiles>  (1) 
COc1c(O)[nH]c2ccc(C(=O)SCNN=NN=NC(=O)N=Nc3ccc(S(N)(=O)=O)cc3)cc12

>  <vina_score>  (1) 
-7.753

>  <job_id>  (1) 
99a7c000366f4dfd

$$$$
