
     RDKit          3D

 46 49  0  0  0  0  0  0  0  0999 V2000
   50.9980   82.3100   21.9560 N   0  0  0  0  0  0  0  0  0  0  0  0
   52.2640   81.8370   22.5130 C   0  0  2  0  0  0  0  0  0  0  0  0
   52.1850   80.3220   22.7630 C   0  0  0  0  0  0  0  0  0  0  0  0
   53.1750   79.8870   23.8360 C   0  0  0  0  0  0  0  0  0  0  0  0
   52.8560   80.5350   25.1950 C   0  0  1  0  0  0  0  0  0  0  0  0
   54.0870   80.6780   25.9670 N   0  0  0  0  0  0  0  0  0  0  0  0
   54.5680   79.6960   26.8080 C   0  0  0  0  0  0  0  0  0  0  0  0
   55.9530   79.8740   27.3640 C   0  0  0  0  0  0  0  0  0  0  0  0
   56.4340   78.9400   28.2040 C   0  0  0  0  0  0  0  0  0  0  0  0
   57.6960   78.9270   28.7910 N   0  0  0  0  0  0  0  0  0  0  0  0
   58.3180   79.9110   29.5840 C   0  0  0  0  0  0  0  0  0  0  0  0
   59.3100   80.7810   29.1120 C   0  0  0  0  0  0  0  0  0  0  0  0
   59.9150   81.7120   29.9630 C   0  0  0  0  0  0  0  0  0  0  0  0
   59.5370   81.7740   31.2980 C   0  0  0  0  0  0  0  0  0  0  0  0
   60.1310   82.6730   32.0960 F   0  0  0  0  0  0  0  0  0  0  0  0
   58.5600   80.9170   31.7910 C   0  0  0  0  0  0  0  0  0  0  0  0
   58.0870   80.9820   33.4460 Cl  0  0  0  0  0  0  0  0  0  0  0  0
   57.9540   79.9900   30.9390 C   0  0  0  0  0  0  0  0  0  0  0  0
   55.6140   77.8200   28.4720 N   0  0  0  0  0  0  0  0  0  0  0  0
   55.9320   76.7440   29.2620 N   0  0  0  0  0  0  0  0  0  0  0  0
   54.8460   75.9700   29.2030 C   0  0  0  0  0  0  0  0  0  0  0  0
   53.8460   76.5170   28.3950 C   0  0  0  0  0  0  0  0  0  0  0  0
   52.1850   75.7320   28.0580 Br  0  0  0  0  0  0  0  0  0  0  0  0
   54.3390   77.7080   27.9200 C   0  0  0  0  0  0  0  0  0  0  0  0
   53.8200   78.6610   27.0930 N   0  0  0  0  0  0  0  0  0  0  0  0
   52.1850   81.9150   25.0540 C   0  0  0  0  0  0  0  0  0  0  0  0
   52.6260   82.6310   23.7810 C   0  0  0  0  0  0  0  0  0  0  0  0
   50.7250   83.1810   22.4110 H   0  0  0  0  0  0  0  0  0  0  0  0
   51.1070   82.5310   20.9660 H   0  0  0  0  0  0  0  0  0  0  0  0
   53.0765   82.0108   21.7921 H   0  0  0  0  0  0  0  0  0  0  0  0
   51.1665   80.0651   23.0895 H   0  0  0  0  0  0  0  0  0  0  0  0
   52.4358   79.8015   21.8269 H   0  0  0  0  0  0  0  0  0  0  0  0
   53.1290   78.7931   23.9422 H   0  0  0  0  0  0  0  0  0  0  0  0
   54.1807   80.2090   23.5281 H   0  0  0  0  0  0  0  0  0  0  0  0
   52.1448   79.8729   25.7106 H   0  0  0  0  0  0  0  0  0  0  0  0
   54.7620   81.3270   25.5780 H   0  0  0  0  0  0  0  0  0  0  0  0
   56.5602   80.7493   27.0899 H   0  0  0  0  0  0  0  0  0  0  0  0
   57.9740   77.9750   29.0540 H   0  0  0  0  0  0  0  0  0  0  0  0
   59.6174   80.7311   28.0570 H   0  0  0  0  0  0  0  0  0  0  0  0
   60.6876   82.3927   29.5761 H   0  0  0  0  0  0  0  0  0  0  0  0
   57.1820   79.3133   31.3341 H   0  0  0  0  0  0  0  0  0  0  0  0
   54.7493   75.0098   29.7310 H   0  0  0  0  0  0  0  0  0  0  0  0
   51.0937   81.7794   25.0266 H   0  0  0  0  0  0  0  0  0  0  0  0
   52.4849   82.5310   25.9146 H   0  0  0  0  0  0  0  0  0  0  0  0
   52.1320   83.6129   23.7374 H   0  0  0  0  0  0  0  0  0  0  0  0
   53.7206   82.7351   23.8136 H   0  0  0  0  0  0  0  0  0  0  0  0
  1  2  1  0
  2  3  1  0
  3  4  1  0
  4  5  1  0
  5  6  1  0
  6  7  1  0
  7  8  1  0
  8  9  2  0
  9 10  1  0
 10 11  1  0
 11 12  1  0
 12 13  2  0
 13 14  1  0
 14 15  1  0
 14 16  2  0
 16 17  1  0
 16 18  1  0
  9 19  1  0
 19 20  1  0
 20 21  2  0
 21 22  1  0
 22 23  1  0
 22 24  2  0
 24 25  1  0
  5 26  1  0
 26 27  1  0
 27  2  1  0
 25  7  2  0
 18 11  2  0
 24 19  1  0
  1 28  1  0
  1 29  1  0
  2 30  1  1
  3 31  1  0
  3 32  1  0
  4 33  1  0
  4 34  1  0
  5 35  1  6
  6 36  1  0
  8 37  1  0
 10 38  1  0
 12 39  1  0
 13 40  1  0
 18 41  1  0
 21 42  1  0
 26 43  1  0
 26 44  1  0
 27 45  1  0
 27 46  1  0
M  END
>  <meeko>  (1) 
{"is_sidechain": false}

>  <smiles>  (1) 
N[C@H]1CC[C@H](Nc2cc(Nc3ccc(F)c(Cl)c3)n3ncc(Br)c3n2)CC1

>  <vina_score>  (1) 
-9.322

>  <job_id>  (1) 
99ab78b961765457

$$$$
