
     RDKit          3D

 39 42  0  0  0  0  0  0  0  0999 V2000
   51.4320   81.0120   22.6730 C   0  0  0  0  0  0  0  0  0  0  0  0
   52.1210   80.8030   23.9560 C   0  0  0  0  0  0  0  0  0  0  0  0
   53.4030   80.7730   24.2260 N   0  0  0  0  0  0  0  0  0  0  0  0
   53.4170   80.5430   25.5790 C   0  0  0  0  0  0  0  0  0  0  0  0
   54.6710   80.4320   26.3180 C   0  0  0  0  0  0  0  0  0  0  0  0
   55.7740   81.3150   26.2270 C   0  0  0  0  0  0  0  0  0  0  0  0
   55.9350   82.5360   25.3950 C   0  0  0  0  0  0  0  0  0  0  0  0
   56.7820   80.9380   27.0210 N   0  0  0  0  0  0  0  0  0  0  0  0
   56.3360   79.8270   27.6620 N   0  0  0  0  0  0  0  0  0  0  0  0
   57.0200   79.0560   28.6180 C   0  0  0  0  0  0  0  0  0  0  0  0
   58.4030   79.4820   29.0330 C   0  0  0  0  0  0  0  0  0  0  0  0
   58.3990   80.5580   30.0950 C   0  0  0  0  0  0  0  0  0  0  0  0
   58.2060   80.2300   31.4450 C   0  0  0  0  0  0  0  0  0  0  0  0
   58.1850   81.2290   32.4230 C   0  0  0  0  0  0  0  0  0  0  0  0
   58.3520   82.5650   32.0620 C   0  0  0  0  0  0  0  0  0  0  0  0
   58.5370   82.8920   30.7240 C   0  0  0  0  0  0  0  0  0  0  0  0
   58.7030   84.1870   30.3270 O   0  0  0  0  0  0  0  0  0  0  0  0
   58.5600   81.9060   29.7430 C   0  0  0  0  0  0  0  0  0  0  0  0
   56.4310   77.9490   29.1060 C   0  0  0  0  0  0  0  0  0  0  0  0
   55.0670   77.6580   28.5970 C   0  0  0  0  0  0  0  0  0  0  0  0
   54.4110   78.3570   27.7260 N   0  0  0  0  0  0  0  0  0  0  0  0
   55.0480   79.4690   27.2360 C   0  0  0  0  0  0  0  0  0  0  0  0
   52.1980   80.4340   26.1320 N   0  0  0  0  0  0  0  0  0  0  0  0
   51.3330   80.6070   25.0510 O   0  0  0  0  0  0  0  0  0  0  0  0
   50.3948   81.3266   22.8608 H   0  0  0  0  0  0  0  0  0  0  0  0
   51.9537   81.7923   22.0995 H   0  0  0  0  0  0  0  0  0  0  0  0
   51.4323   80.0734   22.0995 H   0  0  0  0  0  0  0  0  0  0  0  0
   56.0506   83.4128   26.0491 H   0  0  0  0  0  0  0  0  0  0  0  0
   56.8272   82.4320   24.7601 H   0  0  0  0  0  0  0  0  0  0  0  0
   55.0463   82.6669   24.7601 H   0  0  0  0  0  0  0  0  0  0  0  0
   58.9364   78.6040   29.4263 H   0  0  0  0  0  0  0  0  0  0  0  0
   58.8976   79.9006   28.1441 H   0  0  0  0  0  0  0  0  0  0  0  0
   58.0700   79.1781   31.7367 H   0  0  0  0  0  0  0  0  0  0  0  0
   58.0364   80.9602   33.4792 H   0  0  0  0  0  0  0  0  0  0  0  0
   58.3375   83.3532   32.8291 H   0  0  0  0  0  0  0  0  0  0  0  0
   58.3070   84.2950   29.4480 H   0  0  0  0  0  0  0  0  0  0  0  0
   58.7048   82.1843   28.6887 H   0  0  0  0  0  0  0  0  0  0  0  0
   56.9305   77.2981   29.8387 H   0  0  0  0  0  0  0  0  0  0  0  0
   54.5662   76.7642   28.9975 H   0  0  0  0  0  0  0  0  0  0  0  0
  1  2  1  0
  2  3  2  0
  3  4  1  0
  4  5  1  0
  5  6  1  0
  6  7  1  0
  6  8  2  0
  8  9  1  0
  9 10  1  0
 10 11  1  0
 11 12  1  0
 12 13  2  0
 13 14  1  0
 14 15  2  0
 15 16  1  0
 16 17  1  0
 16 18  2  0
 10 19  2  0
 19 20  1  0
 20 21  2  0
 21 22  1  0
  4 23  2  0
 23 24  1  0
 24  2  1  0
 22  5  2  0
 22  9  1  0
 18 12  1  0
  1 25  1  0
  1 26  1  0
  1 27  1  0
  7 28  1  0
  7 29  1  0
  7 30  1  0
 11 31  1  0
 11 32  1  0
 13 33  1  0
 14 34  1  0
 15 35  1  0
 17 36  1  0
 18 37  1  0
 19 38  1  0
 20 39  1  0
M  END
>  <meeko>  (1) 
{"is_sidechain": false}

>  <smiles>  (1) 
Cc1nc(-c2c(C)nn3c(Cc4cccc(O)c4)ccnc23)no1

>  <vina_score>  (1) 
-8.169

>  <job_id>  (1) 
99e71b4b00df3d42

$$$$
