
     RDKit          3D

 38 40  0  0  0  0  0  0  0  0999 V2000
   52.5600   81.4910   22.2220 C   0  0  0  0  0  0  0  0  0  0  0  0
   52.3470   81.8260   23.5860 O   0  0  0  0  0  0  0  0  0  0  0  0
   52.8760   80.9940   24.5370 C   0  0  0  0  0  0  0  0  0  0  0  0
   53.2790   79.6780   24.3020 C   0  0  0  0  0  0  0  0  0  0  0  0
   53.8130   78.9030   25.3410 C   0  0  0  0  0  0  0  0  0  0  0  0
   53.9520   79.4210   26.6350 C   0  0  0  0  0  0  0  0  0  0  0  0
   54.5210   78.6010   27.6960 C   0  0  0  0  0  0  0  0  0  0  0  0
   53.6910   77.6230   28.1880 O   0  0  0  0  0  0  0  0  0  0  0  0
   54.4320   76.9820   29.1270 C   0  0  0  0  0  0  0  0  0  0  0  0
   55.6450   77.4510   29.2970 N   0  0  0  0  0  0  0  0  0  0  0  0
   55.7190   78.5040   28.3850 C   0  0  0  0  0  0  0  0  0  0  0  0
   56.9060   79.3440   28.2720 C   0  0  0  0  0  0  0  0  0  0  0  0
   57.0510   80.2180   27.4260 O   0  0  0  0  0  0  0  0  0  0  0  0
   57.8440   79.0570   29.2370 N   0  0  0  0  0  0  0  0  0  0  0  0
   59.0220   79.8620   29.4360 C   0  0  0  0  0  0  0  0  0  0  0  0
   58.7720   80.9340   30.4610 C   0  0  0  0  0  0  0  0  0  0  0  0
   58.8380   82.2840   30.1070 C   0  0  0  0  0  0  0  0  0  0  0  0
   58.5750   83.2400   31.0760 C   0  0  0  0  0  0  0  0  0  0  0  0
   58.2530   82.9460   32.3540 N   0  0  0  0  0  0  0  0  0  0  0  0
   58.1850   81.6370   32.6740 C   0  0  0  0  0  0  0  0  0  0  0  0
   58.4280   80.6070   31.7770 C   0  0  0  0  0  0  0  0  0  0  0  0
   53.5550   80.7410   26.8670 C   0  0  0  0  0  0  0  0  0  0  0  0
   53.0220   81.5170   25.8300 C   0  0  0  0  0  0  0  0  0  0  0  0
   52.5600   83.1450   26.1980 Cl  0  0  0  0  0  0  0  0  0  0  0  0
   53.1493   80.5642   22.1598 H   0  0  0  0  0  0  0  0  0  0  0  0
   51.5899   81.3428   21.7250 H   0  0  0  0  0  0  0  0  0  0  0  0
   53.1058   82.3066   21.7250 H   0  0  0  0  0  0  0  0  0  0  0  0
   53.1768   79.2466   23.2953 H   0  0  0  0  0  0  0  0  0  0  0  0
   54.1286   77.8693   25.1364 H   0  0  0  0  0  0  0  0  0  0  0  0
   54.0432   76.1301   29.7042 H   0  0  0  0  0  0  0  0  0  0  0  0
   57.5550   78.4020   29.9560 H   0  0  0  0  0  0  0  0  0  0  0  0
   59.8442   79.2181   29.7814 H   0  0  0  0  0  0  0  0  0  0  0  0
   59.2851   80.3422   28.4819 H   0  0  0  0  0  0  0  0  0  0  0  0
   59.0936   82.5825   29.0796 H   0  0  0  0  0  0  0  0  0  0  0  0
   58.6320   84.2998   30.7869 H   0  0  0  0  0  0  0  0  0  0  0  0
   57.9211   81.3706   33.7081 H   0  0  0  0  0  0  0  0  0  0  0  0
   58.3519   79.5563   32.0936 H   0  0  0  0  0  0  0  0  0  0  0  0
   53.6621   81.1740   27.8725 H   0  0  0  0  0  0  0  0  0  0  0  0
  1  2  1  0
  2  3  1  0
  3  4  1  0
  4  5  2  0
  5  6  1  0
  6  7  1  0
  7  8  1  0
  8  9  1  0
  9 10  2  0
 10 11  1  0
 11 12  1  0
 12 13  2  0
 12 14  1  0
 14 15  1  0
 15 16  1  0
 16 17  2  0
 17 18  1  0
 18 19  2  0
 19 20  1  0
 20 21  2  0
  6 22  2  0
 22 23  1  0
 23 24  1  0
 23  3  2  0
 11  7  2  0
 21 16  1  0
  1 25  1  0
  1 26  1  0
  1 27  1  0
  4 28  1  0
  5 29  1  0
  9 30  1  0
 14 31  1  0
 15 32  1  0
 15 33  1  0
 17 34  1  0
 18 35  1  0
 20 36  1  0
 21 37  1  0
 22 38  1  0
M  END
>  <meeko>  (1) 
{"is_sidechain": false}

>  <smiles>  (1) 
COc1ccc(-c2ocnc2C(=O)NCc2ccncc2)cc1Cl

>  <vina_score>  (1) 
-8.461

>  <job_id>  (1) 
9a79f85ad61bcf43

$$$$
