
     RDKit          3D

 48 50  0  0  0  0  0  0  0  0999 V2000
   53.3100   81.9770   24.3860 C   0  0  0  0  0  0  0  0  0  0  0  0
   53.6230   82.4080   25.8290 C   0  0  0  0  0  0  0  0  0  0  0  0
   54.5940   83.6020   25.7700 C   0  0  0  0  0  0  0  0  0  0  0  0
   52.3380   82.8570   26.5400 C   0  0  0  0  0  0  0  0  0  0  0  0
   54.2830   81.3260   26.5780 N   0  0  0  0  0  0  0  0  0  0  0  0
   53.7350   80.0750   26.7850 C   0  0  0  0  0  0  0  0  0  0  0  0
   52.6620   79.7020   26.3320 O   0  0  0  0  0  0  0  0  0  0  0  0
   54.5210   79.1660   27.6620 C   0  0  0  0  0  0  0  0  0  0  0  0
   53.8590   78.1100   28.2920 C   0  0  0  0  0  0  0  0  0  0  0  0
   54.5650   77.2630   29.1410 C   0  0  0  0  0  0  0  0  0  0  0  0
   55.9350   77.4570   29.3430 C   0  0  0  0  0  0  0  0  0  0  0  0
   56.6340   78.4690   28.6740 C   0  0  0  0  0  0  0  0  0  0  0  0
   58.0070   78.7310   28.8890 N   0  0  0  0  0  0  0  0  0  0  0  0
   58.6090   79.8230   29.5600 C   0  0  0  0  0  0  0  0  0  0  0  0
   59.0870   80.8730   28.7760 C   0  0  0  0  0  0  0  0  0  0  0  0
   59.6850   81.9760   29.3840 C   0  0  0  0  0  0  0  0  0  0  0  0
   59.8070   82.0130   30.7710 C   0  0  0  0  0  0  0  0  0  0  0  0
   59.2930   80.9360   31.4900 C   0  0  0  0  0  0  0  0  0  0  0  0
   58.7060   79.8620   30.9030 N   0  0  0  0  0  0  0  0  0  0  0  0
   59.4260   80.8980   32.9890 C   0  0  0  0  0  0  0  0  0  0  0  0
   59.6850   82.2870   33.5740 C   0  0  0  0  0  0  0  0  0  0  0  0
   60.7750   82.9570   32.8600 N   0  0  0  0  0  0  0  0  0  0  0  0
   60.3930   83.2110   31.4670 C   0  0  0  0  0  0  0  0  0  0  0  0
   55.9010   79.3410   27.8520 C   0  0  0  0  0  0  0  0  0  0  0  0
   52.6637   81.0870   24.4012 H   0  0  0  0  0  0  0  0  0  0  0  0
   52.7945   82.7956   23.8624 H   0  0  0  0  0  0  0  0  0  0  0  0
   54.2480   81.7401   23.8624 H   0  0  0  0  0  0  0  0  0  0  0  0
   54.8502   83.9171   26.7923 H   0  0  0  0  0  0  0  0  0  0  0  0
   55.5095   83.3042   25.2378 H   0  0  0  0  0  0  0  0  0  0  0  0
   54.1158   84.4375   25.2378 H   0  0  0  0  0  0  0  0  0  0  0  0
   52.4845   82.8058   27.6290 H   0  0  0  0  0  0  0  0  0  0  0  0
   52.1008   83.8913   26.2501 H   0  0  0  0  0  0  0  0  0  0  0  0
   51.5083   82.1955   26.2501 H   0  0  0  0  0  0  0  0  0  0  0  0
   55.0200   81.6040   27.2130 H   0  0  0  0  0  0  0  0  0  0  0  0
   52.7849   77.9485   28.1180 H   0  0  0  0  0  0  0  0  0  0  0  0
   54.0450   76.4403   29.6536 H   0  0  0  0  0  0  0  0  0  0  0  0
   56.4747   76.8010   30.0419 H   0  0  0  0  0  0  0  0  0  0  0  0
   58.5180   77.8860   29.1250 H   0  0  0  0  0  0  0  0  0  0  0  0
   58.9924   80.8309   27.6809 H   0  0  0  0  0  0  0  0  0  0  0  0
   60.0578   82.8110   28.7727 H   0  0  0  0  0  0  0  0  0  0  0  0
   58.4952   80.4991   33.4186 H   0  0  0  0  0  0  0  0  0  0  0  0
   60.2846   80.2574   33.2389 H   0  0  0  0  0  0  0  0  0  0  0  0
   58.7705   82.8919   33.4856 H   0  0  0  0  0  0  0  0  0  0  0  0
   59.9706   82.1771   34.6306 H   0  0  0  0  0  0  0  0  0  0  0  0
   60.9850   83.8450   33.3120 H   0  0  0  0  0  0  0  0  0  0  0  0
   59.6471   84.0193   31.4536 H   0  0  0  0  0  0  0  0  0  0  0  0
   61.3126   83.4784   30.9258 H   0  0  0  0  0  0  0  0  0  0  0  0
   56.4159   80.1733   27.3498 H   0  0  0  0  0  0  0  0  0  0  0  0
  1  2  1  0
  2  3  1  0
  2  4  1  0
  2  5  1  0
  5  6  1  0
  6  7  2  0
  6  8  1  0
  8  9  1  0
  9 10  2  0
 10 11  1  0
 11 12  2  0
 12 13  1  0
 13 14  1  0
 14 15  1  0
 15 16  2  0
 16 17  1  0
 17 18  2  0
 18 19  1  0
 18 20  1  0
 20 21  1  0
 21 22  1  0
 22 23  1  0
 12 24  1  0
 24  8  2  0
 19 14  2  0
 23 17  1  0
  1 25  1  0
  1 26  1  0
  1 27  1  0
  3 28  1  0
  3 29  1  0
  3 30  1  0
  4 31  1  0
  4 32  1  0
  4 33  1  0
  5 34  1  0
  9 35  1  0
 10 36  1  0
 11 37  1  0
 13 38  1  0
 15 39  1  0
 16 40  1  0
 20 41  1  0
 20 42  1  0
 21 43  1  0
 21 44  1  0
 22 45  1  0
 23 46  1  0
 23 47  1  0
 24 48  1  0
M  END
>  <meeko>  (1) 
{"is_sidechain": false}

>  <smiles>  (1) 
CC(C)(C)NC(=O)c1cccc(Nc2ccc3c(n2)CCNC3)c1

>  <vina_score>  (1) 
-8.665

>  <job_id>  (1) 
9aab7888fabfb3ae

$$$$
