
     RDKit          3D

 48 50  0  0  0  0  0  0  0  0999 V2000
   66.7180   84.8280   30.7670 C   0  0  0  0  0  0  0  0  0  0  0  0
   66.0200   83.4960   30.6640 C   0  0  0  0  0  0  0  0  0  0  0  0
   66.6300   82.5020   30.2710 O   0  0  0  0  0  0  0  0  0  0  0  0
   64.6770   83.4540   31.0200 N   0  0  0  0  0  0  0  0  0  0  0  0
   64.0080   82.1570   31.0200 C   0  0  0  0  0  0  0  0  0  0  0  0
   62.8280   82.1040   31.9850 C   0  0  0  0  0  0  0  0  0  0  0  0
   61.8210   83.2480   31.7750 C   0  0  0  0  0  0  0  0  0  0  0  0
   60.5210   82.7630   31.1320 C   0  0  0  0  0  0  0  0  0  0  0  0
   59.6490   83.5770   30.8420 O   0  0  0  0  0  0  0  0  0  0  0  0
   60.4600   81.3970   30.9290 N   0  0  0  0  0  0  0  0  0  0  0  0
   59.3960   80.6550   30.3740 C   0  0  0  0  0  0  0  0  0  0  0  0
   59.3120   80.6050   28.9790 C   0  0  0  0  0  0  0  0  0  0  0  0
   58.2870   79.8880   28.3490 C   0  0  0  0  0  0  0  0  0  0  0  0
   57.3170   79.2070   29.0950 C   0  0  0  0  0  0  0  0  0  0  0  0
   56.3340   78.4680   28.4190 N   0  0  0  0  0  0  0  0  0  0  0  0
   55.2110   78.8590   27.6680 C   0  0  0  0  0  0  0  0  0  0  0  0
   54.0550   78.0650   27.7130 C   0  0  0  0  0  0  0  0  0  0  0  0
   52.9250   78.3900   26.9570 C   0  0  0  0  0  0  0  0  0  0  0  0
   52.9370   79.5160   26.1390 C   0  0  0  0  0  0  0  0  0  0  0  0
   54.0760   80.3130   26.0780 C   0  0  0  0  0  0  0  0  0  0  0  0
   55.2040   79.9830   26.8340 C   0  0  0  0  0  0  0  0  0  0  0  0
   57.4140   79.2580   30.4880 C   0  0  0  0  0  0  0  0  0  0  0  0
   58.4390   79.9760   31.1230 C   0  0  0  0  0  0  0  0  0  0  0  0
   62.4120   84.4420   31.0170 C   0  0  0  0  0  0  0  0  0  0  0  0
   63.8830   84.6360   31.3560 C   0  0  0  0  0  0  0  0  0  0  0  0
   66.8549   85.0892   31.8267 H   0  0  0  0  0  0  0  0  0  0  0  0
   67.6998   84.7665   30.2747 H   0  0  0  0  0  0  0  0  0  0  0  0
   66.1087   85.6003   30.2747 H   0  0  0  0  0  0  0  0  0  0  0  0
   63.6413   81.9501   30.0038 H   0  0  0  0  0  0  0  0  0  0  0  0
   64.7405   81.4051   31.3488 H   0  0  0  0  0  0  0  0  0  0  0  0
   62.3042   81.1470   31.8444 H   0  0  0  0  0  0  0  0  0  0  0  0
   63.2331   82.2079   33.0024 H   0  0  0  0  0  0  0  0  0  0  0  0
   61.5749   83.6129   32.7831 H   0  0  0  0  0  0  0  0  0  0  0  0
   61.2710   80.8530   31.1890 H   0  0  0  0  0  0  0  0  0  0  0  0
   60.0592   81.1346   28.3698 H   0  0  0  0  0  0  0  0  0  0  0  0
   58.2432   79.8593   27.2502 H   0  0  0  0  0  0  0  0  0  0  0  0
   56.4630   77.4640   28.4690 H   0  0  0  0  0  0  0  0  0  0  0  0
   54.0377   77.1714   28.3542 H   0  0  0  0  0  0  0  0  0  0  0  0
   52.0272   77.7565   27.0085 H   0  0  0  0  0  0  0  0  0  0  0  0
   52.0495   79.7749   25.5430 H   0  0  0  0  0  0  0  0  0  0  0  0
   54.0885   81.2044   25.4336 H   0  0  0  0  0  0  0  0  0  0  0  0
   56.1009   80.6169   26.7726 H   0  0  0  0  0  0  0  0  0  0  0  0
   56.6716   78.7243   31.0995 H   0  0  0  0  0  0  0  0  0  0  0  0
   58.4866   80.0025   32.2216 H   0  0  0  0  0  0  0  0  0  0  0  0
   62.3133   84.2650   29.9358 H   0  0  0  0  0  0  0  0  0  0  0  0
   61.8639   85.3485   31.3134 H   0  0  0  0  0  0  0  0  0  0  0  0
   64.2685   85.4969   30.7901 H   0  0  0  0  0  0  0  0  0  0  0  0
   63.9651   84.8072   32.4395 H   0  0  0  0  0  0  0  0  0  0  0  0
  1  2  1  0
  2  3  2  0
  2  4  1  0
  4  5  1  0
  5  6  1  0
  6  7  1  0
  7  8  1  0
  8  9  2  0
  8 10  1  0
 10 11  1  0
 11 12  1  0
 12 13  2  0
 13 14  1  0
 14 15  1  0
 15 16  1  0
 16 17  2  0
 17 18  1  0
 18 19  2  0
 19 20  1  0
 20 21  2  0
 14 22  2  0
 22 23  1  0
  7 24  1  0
 24 25  1  0
 25  4  1  0
 23 11  2  0
 21 16  1  0
  1 26  1  0
  1 27  1  0
  1 28  1  0
  5 29  1  0
  5 30  1  0
  6 31  1  0
  6 32  1  0
  7 33  1  0
 10 34  1  0
 12 35  1  0
 13 36  1  0
 15 37  1  0
 17 38  1  0
 18 39  1  0
 19 40  1  0
 20 41  1  0
 21 42  1  0
 22 43  1  0
 23 44  1  0
 24 45  1  0
 24 46  1  0
 25 47  1  0
 25 48  1  0
M  END
>  <meeko>  (1) 
{"is_sidechain": false}

>  <smiles>  (1) 
CC(=O)N1CCC(C(=O)Nc2ccc(Nc3ccccc3)cc2)CC1

>  <vina_score>  (1) 
-7.969

>  <job_id>  (1) 
9abba30ee5ab91e1

$$$$
