
     RDKit          3D

 43 45  0  0  0  0  0  0  0  0999 V2000
   54.3990   79.7420   28.0200 O   0  0  0  0  0  0  0  0  0  0  0  0
   54.8110   78.5900   28.0820 C   0  0  0  0  0  0  0  0  0  0  0  0
   56.0370   78.1690   28.5690 N   0  0  0  0  0  0  0  0  0  0  0  0
   57.1040   78.9770   29.0120 C   0  0  0  0  0  0  0  0  0  0  0  0
   57.8600   79.6320   28.0350 C   0  0  0  0  0  0  0  0  0  0  0  0
   58.9330   80.4560   28.3950 C   0  0  0  0  0  0  0  0  0  0  0  0
   59.2640   80.6520   29.7400 C   0  0  0  0  0  0  0  0  0  0  0  0
   60.3650   81.4840   30.0230 N   0  0  0  0  0  0  0  0  0  0  0  0
   60.3390   82.7690   30.5160 C   0  0  0  0  0  0  0  0  0  0  0  0
   59.3280   83.4520   30.6510 O   0  0  0  0  0  0  0  0  0  0  0  0
   61.5920   83.2730   30.8460 N   0  0  0  0  0  0  0  0  0  0  0  0
   62.8120   82.4800   31.0290 C   0  0  0  0  0  0  0  0  0  0  0  0
   63.7530   83.1310   32.0480 C   0  0  0  0  0  0  0  0  0  0  0  0
   64.1390   84.4630   31.6870 O   0  0  0  0  0  0  0  0  0  0  0  0
   63.1100   85.2090   31.0190 C   0  0  0  0  0  0  0  0  0  0  0  0
   61.6950   84.6760   31.2530 C   0  0  0  0  0  0  0  0  0  0  0  0
   58.5100   79.9960   30.7130 C   0  0  0  0  0  0  0  0  0  0  0  0
   57.4380   79.1680   30.3530 C   0  0  0  0  0  0  0  0  0  0  0  0
   53.9080   77.4920   27.6380 C   0  0  0  0  0  0  0  0  0  0  0  0
   53.6700   76.3650   28.4370 C   0  0  0  0  0  0  0  0  0  0  0  0
   52.8170   75.3570   27.9830 C   0  0  0  0  0  0  0  0  0  0  0  0
   52.2080   75.4670   26.7330 C   0  0  0  0  0  0  0  0  0  0  0  0
   52.4560   76.5780   25.9270 C   0  0  0  0  0  0  0  0  0  0  0  0
   53.3100   77.5870   26.3760 C   0  0  0  0  0  0  0  0  0  0  0  0
   56.1620   77.1730   28.6880 H   0  0  0  0  0  0  0  0  0  0  0  0
   57.6090   79.4985   26.9724 H   0  0  0  0  0  0  0  0  0  0  0  0
   59.5224   80.9549   27.6116 H   0  0  0  0  0  0  0  0  0  0  0  0
   61.2520   81.1840   29.6530 H   0  0  0  0  0  0  0  0  0  0  0  0
   62.5367   81.4766   31.3858 H   0  0  0  0  0  0  0  0  0  0  0  0
   63.3348   82.4204   30.0630 H   0  0  0  0  0  0  0  0  0  0  0  0
   63.2434   83.1662   33.0222 H   0  0  0  0  0  0  0  0  0  0  0  0
   64.6688   82.5227   32.0835 H   0  0  0  0  0  0  0  0  0  0  0  0
   63.1504   86.2485   31.3766 H   0  0  0  0  0  0  0  0  0  0  0  0
   63.3061   85.1209   29.9402 H   0  0  0  0  0  0  0  0  0  0  0  0
   61.4506   84.7599   32.3222 H   0  0  0  0  0  0  0  0  0  0  0  0
   60.9914   85.2696   30.6508 H   0  0  0  0  0  0  0  0  0  0  0  0
   58.7598   80.1302   31.7758 H   0  0  0  0  0  0  0  0  0  0  0  0
   56.8536   78.6632   31.1364 H   0  0  0  0  0  0  0  0  0  0  0  0
   54.1546   76.2748   29.4204 H   0  0  0  0  0  0  0  0  0  0  0  0
   52.6251   74.4751   28.6119 H   0  0  0  0  0  0  0  0  0  0  0  0
   51.5301   74.6751   26.3818 H   0  0  0  0  0  0  0  0  0  0  0  0
   51.9794   76.6591   24.9390 H   0  0  0  0  0  0  0  0  0  0  0  0
   53.5134   78.4586   25.7366 H   0  0  0  0  0  0  0  0  0  0  0  0
  1  2  2  0
  2  3  1  0
  3  4  1  0
  4  5  1  0
  5  6  2  0
  6  7  1  0
  7  8  1  0
  8  9  1  0
  9 10  2  0
  9 11  1  0
 11 12  1  0
 12 13  1  0
 13 14  1  0
 14 15  1  0
 15 16  1  0
  7 17  2  0
 17 18  1  0
  2 19  1  0
 19 20  2  0
 20 21  1  0
 21 22  2  0
 22 23  1  0
 23 24  2  0
 18  4  2  0
 24 19  1  0
 16 11  1  0
  3 25  1  0
  5 26  1  0
  6 27  1  0
  8 28  1  0
 12 29  1  0
 12 30  1  0
 13 31  1  0
 13 32  1  0
 15 33  1  0
 15 34  1  0
 16 35  1  0
 16 36  1  0
 17 37  1  0
 18 38  1  0
 20 39  1  0
 21 40  1  0
 22 41  1  0
 23 42  1  0
 24 43  1  0
M  END
>  <meeko>  (1) 
{"is_sidechain": false}

>  <smiles>  (1) 
O=C(Nc1ccc(NC(=O)N2CCOCC2)cc1)c1ccccc1

>  <vina_score>  (1) 
-7.980

>  <job_id>  (1) 
9ac4f3702633f45e

$$$$
