
     RDKit          3D

 47 49  0  0  0  0  0  0  0  0999 V2000
   53.3100   82.8930   26.8950 C   0  0  0  0  0  0  0  0  0  0  0  0
   53.3270   81.5050   27.2000 O   0  0  0  0  0  0  0  0  0  0  0  0
   53.3330   80.6190   26.1510 C   0  0  0  0  0  0  0  0  0  0  0  0
   52.3660   80.6010   25.1350 C   0  0  0  0  0  0  0  0  0  0  0  0
   52.4340   79.6620   24.1040 C   0  0  0  0  0  0  0  0  0  0  0  0
   53.4660   78.7320   24.0750 C   0  0  0  0  0  0  0  0  0  0  0  0
   54.4350   78.7420   25.0780 C   0  0  0  0  0  0  0  0  0  0  0  0
   54.3910   79.6800   26.1280 C   0  0  0  0  0  0  0  0  0  0  0  0
   55.4450   79.6480   27.1600 C   0  0  0  0  0  0  0  0  0  0  0  0
   56.5440   80.5160   27.1000 C   0  0  0  0  0  0  0  0  0  0  0  0
   57.5500   80.4750   28.0700 C   0  0  0  0  0  0  0  0  0  0  0  0
   57.4810   79.5600   29.1280 C   0  0  0  0  0  0  0  0  0  0  0  0
   58.5600   79.5250   30.1820 C   0  0  0  0  0  0  0  0  0  0  0  0
   58.5900   80.7780   31.0840 C   0  0  0  0  0  0  0  0  0  0  0  0
   57.6780   80.6070   32.3190 C   0  0  0  0  0  0  0  0  0  0  0  0
   58.1170   81.5120   33.4650 C   0  0  0  0  0  0  0  0  0  0  0  0
   59.5170   81.1270   33.9680 C   0  0  0  0  0  0  0  0  0  0  0  0
   60.1240   82.2920   34.6170 N   0  0  0  0  0  0  0  0  0  0  0  0
   60.4150   80.5720   32.8490 C   0  0  0  0  0  0  0  0  0  0  0  0
   60.0410   81.1340   31.4810 C   0  0  0  0  0  0  0  0  0  0  0  0
   56.3880   78.6890   29.1950 C   0  0  0  0  0  0  0  0  0  0  0  0
   55.3840   78.7330   28.2230 C   0  0  0  0  0  0  0  0  0  0  0  0
   53.3029   83.4736   27.8292 H   0  0  0  0  0  0  0  0  0  0  0  0
   54.2051   83.1508   26.3098 H   0  0  0  0  0  0  0  0  0  0  0  0
   52.4089   83.1288   26.3098 H   0  0  0  0  0  0  0  0  0  0  0  0
   51.5460   81.3340   25.1507 H   0  0  0  0  0  0  0  0  0  0  0  0
   51.6693   79.6584   23.3133 H   0  0  0  0  0  0  0  0  0  0  0  0
   53.5185   77.9907   23.2640 H   0  0  0  0  0  0  0  0  0  0  0  0
   55.2494   78.0031   25.0486 H   0  0  0  0  0  0  0  0  0  0  0  0
   56.6161   81.2413   26.2762 H   0  0  0  0  0  0  0  0  0  0  0  0
   58.4024   81.1669   28.0017 H   0  0  0  0  0  0  0  0  0  0  0  0
   58.3948   78.6432   30.8185 H   0  0  0  0  0  0  0  0  0  0  0  0
   59.5238   79.4874   29.6531 H   0  0  0  0  0  0  0  0  0  0  0  0
   58.1881   81.6237   30.5068 H   0  0  0  0  0  0  0  0  0  0  0  0
   56.6449   80.8602   32.0387 H   0  0  0  0  0  0  0  0  0  0  0  0
   57.7461   79.5626   32.6574 H   0  0  0  0  0  0  0  0  0  0  0  0
   58.1355   82.5540   33.1132 H   0  0  0  0  0  0  0  0  0  0  0  0
   57.4036   81.3969   34.2944 H   0  0  0  0  0  0  0  0  0  0  0  0
   59.4133   80.3103   34.6976 H   0  0  0  0  0  0  0  0  0  0  0  0
   60.2750   82.0930   35.6050 H   0  0  0  0  0  0  0  0  0  0  0  0
   61.0470   82.4650   34.2200 H   0  0  0  0  0  0  0  0  0  0  0  0
   61.4597   80.8377   33.0680 H   0  0  0  0  0  0  0  0  0  0  0  0
   60.2792   79.4809   32.8156 H   0  0  0  0  0  0  0  0  0  0  0  0
   60.1433   82.2289   31.5071 H   0  0  0  0  0  0  0  0  0  0  0  0
   60.7157   80.6883   30.7353 H   0  0  0  0  0  0  0  0  0  0  0  0
   56.3181   77.9638   30.0191 H   0  0  0  0  0  0  0  0  0  0  0  0
   54.5328   78.0397   28.2923 H   0  0  0  0  0  0  0  0  0  0  0  0
  1  2  1  0
  2  3  1  0
  3  4  2  0
  4  5  1  0
  5  6  2  0
  6  7  1  0
  7  8  2  0
  8  9  1  0
  9 10  1  0
 10 11  2  0
 11 12  1  0
 12 13  1  0
 13 14  1  0
 14 15  1  0
 15 16  1  0
 16 17  1  0
 17 18  1  0
 17 19  1  0
 19 20  1  0
 12 21  2  0
 21 22  1  0
  8  3  1  0
 22  9  2  0
 20 14  1  0
  1 23  1  0
  1 24  1  0
  1 25  1  0
  4 26  1  0
  5 27  1  0
  6 28  1  0
  7 29  1  0
 10 30  1  0
 11 31  1  0
 13 32  1  0
 13 33  1  0
 14 34  1  0
 15 35  1  0
 15 36  1  0
 16 37  1  0
 16 38  1  0
 17 39  1  0
 18 40  1  0
 18 41  1  0
 19 42  1  0
 19 43  1  0
 20 44  1  0
 20 45  1  0
 21 46  1  0
 22 47  1  0
M  END
>  <meeko>  (1) 
{"is_sidechain": false}

>  <smiles>  (1) 
COc1ccccc1-c1ccc(CC2CCC(N)CC2)cc1

>  <vina_score>  (1) 
-7.146

>  <job_id>  (1) 
9ac5823ca36c019e

$$$$
