
     RDKit          3D

 57 60  0  0  0  0  0  0  0  0999 V2000
   65.0040   85.7560   29.1600 C   0  0  0  0  0  0  0  0  0  0  0  0
   64.7490   84.3570   29.1460 O   0  0  0  0  0  0  0  0  0  0  0  0
   63.9700   83.9240   30.2760 C   0  0  0  0  0  0  0  0  0  0  0  0
   64.6640   82.6720   31.3700 S   0  0  0  0  0  0  0  0  0  0  0  0
   64.9660   81.3800   30.5750 N   0  0  0  0  0  0  0  0  0  0  0  0
   65.6720   83.3340   32.1790 O   0  0  0  0  0  0  0  0  0  0  0  0
   63.3140   82.2700   32.4690 C   0  0  0  0  0  0  0  0  0  0  0  0
   63.5590   82.1000   33.8330 C   0  0  0  0  0  0  0  0  0  0  0  0
   62.5170   81.7720   34.7060 C   0  0  0  0  0  0  0  0  0  0  0  0
   61.2350   81.6220   34.1640 C   0  0  0  0  0  0  0  0  0  0  0  0
   60.0430   81.2980   34.7780 N   0  0  0  0  0  0  0  0  0  0  0  0
   59.0290   81.2400   33.8620 C   0  0  0  0  0  0  0  0  0  0  0  0
   57.8000   80.9260   34.2480 O   0  0  0  0  0  0  0  0  0  0  0  0
   59.5700   81.5550   32.6370 C   0  0  0  0  0  0  0  0  0  0  0  0
   58.8330   81.5760   31.4460 N   0  0  0  0  0  0  0  0  0  0  0  0
   58.9690   80.5270   30.7820 N   0  0  0  0  0  0  0  0  0  0  0  0
   58.1870   80.5750   29.6160 C   0  0  0  0  0  0  0  0  0  0  0  0
   58.0970   81.7400   28.8430 C   0  0  0  0  0  0  0  0  0  0  0  0
   57.2890   81.7730   27.7020 C   0  0  0  0  0  0  0  0  0  0  0  0
   56.5560   80.6440   27.3150 C   0  0  0  0  0  0  0  0  0  0  0  0
   55.7110   80.6580   26.1900 N   0  0  0  0  0  0  0  0  0  0  0  0
   54.7000   81.3620   26.4100 N   0  0  0  0  0  0  0  0  0  0  0  0
   53.8600   81.3780   25.2830 C   0  0  0  0  0  0  0  0  0  0  0  0
   53.5060   80.1960   24.6150 C   0  0  0  0  0  0  0  0  0  0  0  0
   52.6480   80.2290   23.5130 C   0  0  0  0  0  0  0  0  0  0  0  0
   52.1420   81.4560   23.0770 C   0  0  0  0  0  0  0  0  0  0  0  0
   51.0470   81.4960   21.6800 S   0  0  0  0  0  0  0  0  0  0  0  0
   49.6010   80.9820   22.3730 N   0  0  0  0  0  0  0  0  0  0  0  0
   50.8840   82.8700   21.2700 O   0  0  0  0  0  0  0  0  0  0  0  0
   51.4340   80.4470   20.7640 O   0  0  0  0  0  0  0  0  0  0  0  0
   52.4640   82.6410   23.7440 C   0  0  0  0  0  0  0  0  0  0  0  0
   53.3210   82.5940   24.8460 C   0  0  0  0  0  0  0  0  0  0  0  0
   56.6260   79.4910   28.1040 C   0  0  0  0  0  0  0  0  0  0  0  0
   57.4350   79.4570   29.2440 C   0  0  0  0  0  0  0  0  0  0  0  0
   60.9650   81.7850   32.8000 C   0  0  0  0  0  0  0  0  0  0  0  0
   62.0290   82.1060   31.9330 C   0  0  0  0  0  0  0  0  0  0  0  0
   65.0679   86.1067   30.2007 H   0  0  0  0  0  0  0  0  0  0  0  0
   65.9542   85.9607   28.6451 H   0  0  0  0  0  0  0  0  0  0  0  0
   64.1871   86.2828   28.6451 H   0  0  0  0  0  0  0  0  0  0  0  0
   63.7655   84.8139   30.8895 H   0  0  0  0  0  0  0  0  0  0  0  0
   63.0940   83.4332   29.8268 H   0  0  0  0  0  0  0  0  0  0  0  0
   65.2990   80.6490   31.2060 H   0  0  0  0  0  0  0  0  0  0  0  0
   64.5796   82.2250   34.2239 H   0  0  0  0  0  0  0  0  0  0  0  0
   62.6986   81.6364   35.7824 H   0  0  0  0  0  0  0  0  0  0  0  0
   59.9250   81.1150   35.7640 H   0  0  0  0  0  0  0  0  0  0  0  0
   57.3410   80.5910   33.4530 H   0  0  0  0  0  0  0  0  0  0  0  0
   58.6658   82.6349   29.1356 H   0  0  0  0  0  0  0  0  0  0  0  0
   57.2286   82.6938   27.1032 H   0  0  0  0  0  0  0  0  0  0  0  0
   53.9083   79.2331   24.9627 H   0  0  0  0  0  0  0  0  0  0  0  0
   52.3737   79.2987   22.9941 H   0  0  0  0  0  0  0  0  0  0  0  0
   49.6700   80.8040   23.3730 H   0  0  0  0  0  0  0  0  0  0  0  0
   49.2620   80.1650   21.8610 H   0  0  0  0  0  0  0  0  0  0  0  0
   52.0470   83.6007   23.4048 H   0  0  0  0  0  0  0  0  0  0  0  0
   53.5754   83.5233   25.3767 H   0  0  0  0  0  0  0  0  0  0  0  0
   56.0394   78.6032   27.8252 H   0  0  0  0  0  0  0  0  0  0  0  0
   57.4800   78.5424   29.8534 H   0  0  0  0  0  0  0  0  0  0  0  0
   61.8540   82.2259   30.8536 H   0  0  0  0  0  0  0  0  0  0  0  0
  1  2  1  0
  2  3  1  0
  3  4  1  0
  4  5  2  0
  4  6  2  0
  4  7  1  0
  7  8  2  0
  8  9  1  0
  9 10  2  0
 10 11  1  0
 11 12  1  0
 12 13  1  0
 12 14  2  0
 14 15  1  0
 15 16  2  3
 16 17  1  0
 17 18  1  0
 18 19  2  0
 19 20  1  0
 20 21  1  0
 21 22  2  3
 22 23  1  0
 23 24  1  0
 24 25  2  0
 25 26  1  0
 26 27  1  0
 27 28  1  0
 27 29  2  0
 27 30  2  0
 26 31  2  0
 31 32  1  0
 20 33  2  0
 33 34  1  0
 14 35  1  0
 35 36  2  0
 36  7  1  0
 35 10  1  0
 34 17  2  0
 32 23  2  0
  1 37  1  0
  1 38  1  0
  1 39  1  0
  3 40  1  0
  3 41  1  0
  5 42  1  0
  8 43  1  0
  9 44  1  0
 11 45  1  0
 13 46  1  0
 18 47  1  0
 19 48  1  0
 24 49  1  0
 25 50  1  0
 28 51  1  0
 28 52  1  0
 31 53  1  0
 32 54  1  0
 33 55  1  0
 34 56  1  0
 36 57  1  0
M  END
>  <meeko>  (1) 
{"is_sidechain": false}

>  <smiles>  (1) 
COCS(=N)(=O)c1ccc2[nH]c(O)c(N=Nc3ccc(N=Nc4ccc(S(N)(=O)=O)cc4)cc3)c2c1

>  <vina_score>  (1) 
-8.062

>  <job_id>  (1) 
9acb6d162bfeb398

$$$$
