
     RDKit          3D

 51 52  0  0  0  0  0  0  0  0999 V2000
   59.9540   80.6050   35.0440 C   0  0  0  0  0  0  0  0  0  0  0  0
   61.1150   81.0460   34.1610 C   0  0  2  0  0  0  0  0  0  0  0  0
   62.5660   81.3640   35.1290 S   0  0  0  0  0  0  0  0  0  0  0  0
   63.8120   81.3570   34.0190 N   0  0  0  0  0  0  0  0  0  0  0  0
   62.8290   80.2100   35.9620 O   0  0  0  0  0  0  0  0  0  0  0  0
   62.5260   82.6870   35.7030 O   0  0  0  0  0  0  0  0  0  0  0  0
   60.7090   82.3900   33.0950 S   0  0  0  0  0  0  0  0  0  0  0  0
   59.7270   83.2520   33.7310 O   0  0  0  0  0  0  0  0  0  0  0  0
   61.9690   82.9740   32.6620 O   0  0  0  0  0  0  0  0  0  0  0  0
   59.9530   81.7230   31.6260 C   0  0  0  0  0  0  0  0  0  0  0  0
   59.1110   80.6150   31.7260 C   0  0  0  0  0  0  0  0  0  0  0  0
   58.5440   80.0640   30.5710 C   0  0  0  0  0  0  0  0  0  0  0  0
   58.8180   80.5890   29.3040 C   0  0  0  0  0  0  0  0  0  0  0  0
   58.2820   80.0830   28.1160 N   0  0  0  0  0  0  0  0  0  0  0  0
   56.9890   79.8570   27.6540 C   0  0  0  0  0  0  0  0  0  0  0  0
   56.2860   78.7700   28.0030 N   0  0  0  0  0  0  0  0  0  0  0  0
   55.0440   78.6370   27.4950 C   0  0  0  0  0  0  0  0  0  0  0  0
   54.4590   79.5510   26.6570 C   0  0  0  0  0  0  0  0  0  0  0  0
   53.1080   79.3560   26.0910 C   0  0  0  0  0  0  0  0  0  0  0  0
   52.2120   80.2870   26.5200 F   0  0  0  0  0  0  0  0  0  0  0  0
   53.0750   79.4030   24.7300 F   0  0  0  0  0  0  0  0  0  0  0  0
   52.5600   78.1510   26.4230 F   0  0  0  0  0  0  0  0  0  0  0  0
   55.2400   80.6440   26.3950 C   0  0  0  0  0  0  0  0  0  0  0  0
   54.8330   81.6150   25.5260 O   0  0  0  0  0  0  0  0  0  0  0  0
   54.4320   82.8490   26.1660 C   0  0  2  0  0  0  0  0  0  0  0  0
   53.3070   83.4010   25.2890 C   0  0  0  0  0  0  0  0  0  0  0  0
   55.5510   83.9120   26.3160 C   0  0  0  0  0  0  0  0  0  0  0  0
   56.0380   83.9540   27.6440 O   0  0  0  0  0  0  0  0  0  0  0  0
   56.6500   83.6710   25.4620 O   0  0  0  0  0  0  0  0  0  0  0  0
   56.5050   80.8010   26.8350 N   0  0  0  0  0  0  0  0  0  0  0  0
   59.7030   81.6780   29.2270 C   0  0  0  0  0  0  0  0  0  0  0  0
   60.2790   82.2370   30.3730 C   0  0  0  0  0  0  0  0  0  0  0  0
   60.2364   80.7123   36.1017 H   0  0  0  0  0  0  0  0  0  0  0  0
   59.0748   81.2318   34.8339 H   0  0  0  0  0  0  0  0  0  0  0  0
   59.7127   79.5526   34.8339 H   0  0  0  0  0  0  0  0  0  0  0  0
   61.3393   80.2043   33.4892 H   0  0  0  0  0  0  0  0  0  0  0  0
   63.7730   82.1690   33.4010 H   0  0  0  0  0  0  0  0  0  0  0  0
   63.8990   80.4570   33.5370 H   0  0  0  0  0  0  0  0  0  0  0  0
   58.8932   80.1754   32.7105 H   0  0  0  0  0  0  0  0  0  0  0  0
   57.8690   79.2002   30.6617 H   0  0  0  0  0  0  0  0  0  0  0  0
   58.9370   79.8640   27.3790 H   0  0  0  0  0  0  0  0  0  0  0  0
   54.4659   77.7422   27.7692 H   0  0  0  0  0  0  0  0  0  0  0  0
   54.1351   82.6308   27.2025 H   0  0  0  0  0  0  0  0  0  0  0  0
   52.5035   83.7953   25.9284 H   0  0  0  0  0  0  0  0  0  0  0  0
   53.6999   84.2087   24.6539 H   0  0  0  0  0  0  0  0  0  0  0  0
   52.9086   82.5960   24.6539 H   0  0  0  0  0  0  0  0  0  0  0  0
   55.0865   84.8704   26.0410 H   0  0  0  0  0  0  0  0  0  0  0  0
   55.9960   83.0310   27.9480 H   0  0  0  0  0  0  0  0  0  0  0  0
   56.7120   82.6940   25.4140 H   0  0  0  0  0  0  0  0  0  0  0  0
   59.9488   82.1012   28.2418 H   0  0  0  0  0  0  0  0  0  0  0  0
   60.9844   83.0765   30.2852 H   0  0  0  0  0  0  0  0  0  0  0  0
  1  2  1  0
  2  3  1  0
  3  4  1  0
  3  5  2  0
  3  6  2  0
  2  7  1  0
  7  8  2  0
  7  9  2  0
  7 10  1  0
 10 11  1  0
 11 12  2  0
 12 13  1  0
 13 14  1  0
 14 15  1  0
 15 16  2  0
 16 17  1  0
 17 18  2  0
 18 19  1  0
 19 20  1  0
 19 21  1  0
 19 22  1  0
 18 23  1  0
 23 24  1  0
 24 25  1  0
 25 26  1  0
 25 27  1  0
 27 28  1  0
 27 29  1  0
 23 30  2  0
 13 31  2  0
 31 32  1  0
 32 10  2  0
 30 15  1  0
  1 33  1  0
  1 34  1  0
  1 35  1  0
  2 36  1  6
  4 37  1  0
  4 38  1  0
 11 39  1  0
 12 40  1  0
 14 41  1  0
 17 42  1  0
 25 43  1  1
 26 44  1  0
 26 45  1  0
 26 46  1  0
 27 47  1  0
 28 48  1  0
 29 49  1  0
 31 50  1  0
 32 51  1  0
M  END
>  <meeko>  (1) 
{"is_sidechain": false}

>  <smiles>  (1) 
C[C@H](S(N)(=O)=O)S(=O)(=O)c1ccc(Nc2ncc(C(F)(F)F)c(O[C@H](C)C(O)O)n2)cc1

>  <vina_score>  (1) 
-7.962

>  <job_id>  (1) 
9b044bdc845ee6e9

$$$$
