
     RDKit          3D

 43 46  0  0  0  0  0  0  0  0999 V2000
   62.3940   83.5790   31.3520 C   0  0  0  0  0  0  0  0  0  0  0  0
   61.4190   83.4790   32.3830 O   0  0  0  0  0  0  0  0  0  0  0  0
   60.4160   82.5650   32.1900 C   0  0  0  0  0  0  0  0  0  0  0  0
   60.2180   81.7850   31.0500 C   0  0  0  0  0  0  0  0  0  0  0  0
   59.1400   80.8800   30.9800 C   0  0  0  0  0  0  0  0  0  0  0  0
   58.9340   80.0440   29.7360 C   0  0  0  0  0  0  0  0  0  0  0  0
   57.8520   79.1070   29.9610 N   0  0  0  0  0  0  0  0  0  0  0  0
   56.8300   78.9980   29.0800 C   0  0  0  0  0  0  0  0  0  0  0  0
   55.8510   78.1500   29.2860 N   0  0  0  0  0  0  0  0  0  0  0  0
   54.9210   78.2320   28.2690 C   0  0  0  0  0  0  0  0  0  0  0  0
   55.1910   79.1490   27.2710 C   0  0  0  0  0  0  0  0  0  0  0  0
   54.4100   79.4950   26.0800 C   0  0  0  0  0  0  0  0  0  0  0  0
   54.0320   78.4910   25.1780 C   0  0  0  0  0  0  0  0  0  0  0  0
   53.2950   78.8000   24.0310 C   0  0  0  0  0  0  0  0  0  0  0  0
   52.9220   80.1260   23.7620 C   0  0  0  0  0  0  0  0  0  0  0  0
   52.1850   80.4940   22.6330 C   0  0  0  0  0  0  0  0  0  0  0  0
   51.8100   81.7610   22.3410 N   0  0  0  0  0  0  0  0  0  0  0  0
   52.1850   82.7170   23.2160 C   0  0  0  0  0  0  0  0  0  0  0  0
   52.9160   82.4660   24.3670 C   0  0  0  0  0  0  0  0  0  0  0  0
   53.2940   81.1480   24.6540 C   0  0  0  0  0  0  0  0  0  0  0  0
   54.0370   80.8210   25.8040 C   0  0  0  0  0  0  0  0  0  0  0  0
   56.6680   79.9410   27.6450 S   0  0  0  0  0  0  0  0  0  0  0  0
   58.2590   80.7720   32.0670 C   0  0  0  0  0  0  0  0  0  0  0  0
   58.4550   81.5440   33.2100 C   0  0  0  0  0  0  0  0  0  0  0  0
   59.5250   82.4270   33.2600 C   0  0  0  0  0  0  0  0  0  0  0  0
   59.6930   83.1750   34.3950 O   0  0  0  0  0  0  0  0  0  0  0  0
   63.3930   83.6815   31.8008 H   0  0  0  0  0  0  0  0  0  0  0  0
   62.3631   82.6730   30.7290 H   0  0  0  0  0  0  0  0  0  0  0  0
   62.1798   84.4599   30.7290 H   0  0  0  0  0  0  0  0  0  0  0  0
   60.9090   81.8773   30.1991 H   0  0  0  0  0  0  0  0  0  0  0  0
   58.6815   80.7003   28.8902 H   0  0  0  0  0  0  0  0  0  0  0  0
   59.8573   79.4917   29.5068 H   0  0  0  0  0  0  0  0  0  0  0  0
   58.1660   78.2020   30.3020 H   0  0  0  0  0  0  0  0  0  0  0  0
   54.0179   77.6042   28.2539 H   0  0  0  0  0  0  0  0  0  0  0  0
   54.3187   77.4474   25.3750 H   0  0  0  0  0  0  0  0  0  0  0  0
   53.0056   77.9989   23.3350 H   0  0  0  0  0  0  0  0  0  0  0  0
   51.8892   79.6985   21.9332 H   0  0  0  0  0  0  0  0  0  0  0  0
   51.8938   83.7563   23.0038 H   0  0  0  0  0  0  0  0  0  0  0  0
   53.1944   83.2877   25.0432 H   0  0  0  0  0  0  0  0  0  0  0  0
   54.3315   81.6198   26.5006 H   0  0  0  0  0  0  0  0  0  0  0  0
   57.4098   80.0746   32.0163 H   0  0  0  0  0  0  0  0  0  0  0  0
   57.7684   81.4547   34.0648 H   0  0  0  0  0  0  0  0  0  0  0  0
   59.4770   82.5680   35.1290 H   0  0  0  0  0  0  0  0  0  0  0  0
  1  2  1  0
  2  3  1  0
  3  4  1  0
  4  5  2  0
  5  6  1  0
  6  7  1  0
  7  8  1  0
  8  9  2  0
  9 10  1  0
 10 11  2  0
 11 12  1  0
 12 13  1  0
 13 14  2  0
 14 15  1  0
 15 16  2  0
 16 17  1  0
 17 18  2  0
 18 19  1  0
 19 20  2  0
 20 21  1  0
 11 22  1  0
  5 23  1  0
 23 24  2  0
 24 25  1  0
 25 26  1  0
 25  3  2  0
 22  8  1  0
 21 12  2  0
 20 15  1  0
  1 27  1  0
  1 28  1  0
  1 29  1  0
  4 30  1  0
  6 31  1  0
  6 32  1  0
  7 33  1  0
 10 34  1  0
 13 35  1  0
 14 36  1  0
 16 37  1  0
 18 38  1  0
 19 39  1  0
 21 40  1  0
 23 41  1  0
 24 42  1  0
 26 43  1  0
M  END
>  <meeko>  (1) 
{"is_sidechain": false}

>  <smiles>  (1) 
COc1cc(CNc2ncc(-c3ccc4cnccc4c3)s2)ccc1O

>  <vina_score>  (1) 
-8.154

>  <job_id>  (1) 
9b10b307b58a14a7

$$$$
