
     RDKit          3D

 48 50  0  0  0  0  0  0  0  0999 V2000
   52.5550   82.7950   24.1170 C   0  0  0  0  0  0  0  0  0  0  0  0
   53.0070   81.4140   23.7180 C   0  0  0  0  0  0  0  0  0  0  0  0
   53.3230   81.1810   22.5510 O   0  0  0  0  0  0  0  0  0  0  0  0
   53.0270   80.4400   24.7090 N   0  0  0  0  0  0  0  0  0  0  0  0
   52.9890   80.7450   26.1450 C   0  0  0  0  0  0  0  0  0  0  0  0
   52.4010   79.5930   26.9770 C   0  0  0  0  0  0  0  0  0  0  0  0
   53.0680   78.3090   26.6860 N   0  0  0  0  0  0  0  0  0  0  0  0
   54.1150   77.9570   27.5370 C   0  0  0  0  0  0  0  0  0  0  0  0
   55.2470   78.7690   27.7020 C   0  0  0  0  0  0  0  0  0  0  0  0
   56.2810   78.4240   28.5860 C   0  0  0  0  0  0  0  0  0  0  0  0
   57.4420   79.3520   28.7100 C   0  0  0  0  0  0  0  0  0  0  0  0
   57.9750   79.7530   27.6830 O   0  0  0  0  0  0  0  0  0  0  0  0
   57.7740   79.7000   30.0080 N   0  0  0  0  0  0  0  0  0  0  0  0
   58.8390   80.5250   30.4260 C   0  0  0  0  0  0  0  0  0  0  0  0
   59.1040   80.5780   31.8010 C   0  0  0  0  0  0  0  0  0  0  0  0
   60.1470   81.3680   32.2970 C   0  0  0  0  0  0  0  0  0  0  0  0
   60.9320   82.1070   31.4170 C   0  0  0  0  0  0  0  0  0  0  0  0
   62.2140   83.0790   32.0240 Cl  0  0  0  0  0  0  0  0  0  0  0  0
   60.6830   82.0600   30.0490 C   0  0  0  0  0  0  0  0  0  0  0  0
   59.6390   81.2700   29.5550 C   0  0  0  0  0  0  0  0  0  0  0  0
   56.2150   77.2310   29.3050 C   0  0  0  0  0  0  0  0  0  0  0  0
   55.1110   76.3980   29.1450 C   0  0  0  0  0  0  0  0  0  0  0  0
   54.0710   76.7400   28.2600 C   0  0  0  0  0  0  0  0  0  0  0  0
   52.9350   75.7600   28.1020 C   0  0  0  0  0  0  0  0  0  0  0  0
   53.1290   77.9820   25.2450 C   0  0  0  0  0  0  0  0  0  0  0  0
   53.6270   79.1460   24.3690 C   0  0  0  0  0  0  0  0  0  0  0  0
   52.5304   82.8700   25.2142 H   0  0  0  0  0  0  0  0  0  0  0  0
   53.2559   83.5409   23.7141 H   0  0  0  0  0  0  0  0  0  0  0  0
   51.5487   82.9822   23.7141 H   0  0  0  0  0  0  0  0  0  0  0  0
   54.0144   80.9422   26.4909 H   0  0  0  0  0  0  0  0  0  0  0  0
   52.3396   81.6220   26.2831 H   0  0  0  0  0  0  0  0  0  0  0  0
   52.5265   79.8252   28.0449 H   0  0  0  0  0  0  0  0  0  0  0  0
   51.3372   79.4919   26.7161 H   0  0  0  0  0  0  0  0  0  0  0  0
   55.3263   79.7010   27.1231 H   0  0  0  0  0  0  0  0  0  0  0  0
   57.1490   79.3870   30.7380 H   0  0  0  0  0  0  0  0  0  0  0  0
   58.4858   79.9926   32.4975 H   0  0  0  0  0  0  0  0  0  0  0  0
   60.3457   81.4048   33.3783 H   0  0  0  0  0  0  0  0  0  0  0  0
   61.3066   82.6437   29.3559 H   0  0  0  0  0  0  0  0  0  0  0  0
   59.4464   81.2350   28.4726 H   0  0  0  0  0  0  0  0  0  0  0  0
   57.0272   76.9508   29.9918 H   0  0  0  0  0  0  0  0  0  0  0  0
   55.0506   75.4606   29.7174 H   0  0  0  0  0  0  0  0  0  0  0  0
   52.5767   75.4509   29.0950 H   0  0  0  0  0  0  0  0  0  0  0  0
   52.1133   76.2373   27.5479 H   0  0  0  0  0  0  0  0  0  0  0  0
   53.2867   74.8772   27.5479 H   0  0  0  0  0  0  0  0  0  0  0  0
   53.8107   77.1293   25.1105 H   0  0  0  0  0  0  0  0  0  0  0  0
   52.1027   77.7522   24.9228 H   0  0  0  0  0  0  0  0  0  0  0  0
   54.7176   79.2274   24.4873 H   0  0  0  0  0  0  0  0  0  0  0  0
   53.3322   78.9177   23.3341 H   0  0  0  0  0  0  0  0  0  0  0  0
  1  2  1  0
  2  3  2  0
  2  4  1  0
  4  5  1  0
  5  6  1  0
  6  7  1  0
  7  8  1  0
  8  9  1  0
  9 10  2  0
 10 11  1  0
 11 12  2  0
 11 13  1  0
 13 14  1  0
 14 15  1  0
 15 16  2  0
 16 17  1  0
 17 18  1  0
 17 19  2  0
 19 20  1  0
 10 21  1  0
 21 22  2  0
 22 23  1  0
 23 24  1  0
  7 25  1  0
 25 26  1  0
 26  4  1  0
 23  8  2  0
 20 14  2  0
  1 27  1  0
  1 28  1  0
  1 29  1  0
  5 30  1  0
  5 31  1  0
  6 32  1  0
  6 33  1  0
  9 34  1  0
 13 35  1  0
 15 36  1  0
 16 37  1  0
 19 38  1  0
 20 39  1  0
 21 40  1  0
 22 41  1  0
 24 42  1  0
 24 43  1  0
 24 44  1  0
 25 45  1  0
 25 46  1  0
 26 47  1  0
 26 48  1  0
M  END
>  <meeko>  (1) 
{"is_sidechain": false}

>  <smiles>  (1) 
CC(=O)N1CCN(c2cc(C(=O)Nc3ccc(Cl)cc3)ccc2C)CC1

>  <vina_score>  (1) 
-8.715

>  <job_id>  (1) 
9b7c31919ee1271a

$$$$
