
     RDKit          3D

 67 70  0  0  0  0  0  0  0  0999 V2000
   62.4700   82.3320   36.8480 C   0  0  0  0  0  0  0  0  0  0  0  0
   62.6860   82.9110   35.4990 C   0  0  0  0  0  0  0  0  0  0  0  0
   63.2510   84.0820   35.2980 N   0  0  0  0  0  0  0  0  0  0  0  0
   63.3590   84.2210   33.9490 C   0  0  0  0  0  0  0  0  0  0  0  0
   62.8190   83.1420   33.2770 C   0  0  0  0  0  0  0  0  0  0  0  0
   62.7760   82.8990   31.8410 C   0  0  0  0  0  0  0  0  0  0  0  0
   63.5290   82.1120   31.2660 O   0  0  0  0  0  0  0  0  0  0  0  0
   61.7290   83.6280   31.0260 C   0  0  0  0  0  0  0  0  0  0  0  0
   60.3130   83.3140   31.4360 C   0  0  0  0  0  0  0  0  0  0  0  0
   59.6980   83.9980   32.2500 O   0  0  0  0  0  0  0  0  0  0  0  0
   59.6450   82.1130   30.8490 C   0  0  0  0  0  0  0  0  0  0  0  0
   59.8200   81.8500   29.4880 C   0  0  0  0  0  0  0  0  0  0  0  0
   59.2100   80.7390   28.8950 C   0  0  0  0  0  0  0  0  0  0  0  0
   58.4130   79.8570   29.6420 C   0  0  0  0  0  0  0  0  0  0  0  0
   57.8200   78.7740   28.9850 N   0  0  0  0  0  0  0  0  0  0  0  0
   56.5110   78.3310   28.8330 C   0  0  0  0  0  0  0  0  0  0  0  0
   55.9360   77.4890   29.7070 N   0  0  0  0  0  0  0  0  0  0  0  0
   54.6650   77.1100   29.4600 C   0  0  0  0  0  0  0  0  0  0  0  0
   53.9450   77.5460   28.3810 C   0  0  0  0  0  0  0  0  0  0  0  0
   52.6850   77.1370   28.1820 F   0  0  0  0  0  0  0  0  0  0  0  0
   54.5980   78.4200   27.5430 C   0  0  0  0  0  0  0  0  0  0  0  0
   53.9790   78.9530   26.3310 C   0  0  0  0  0  0  0  0  0  0  0  0
   53.3340   78.2680   25.3190 C   0  0  0  0  0  0  0  0  0  0  0  0
   52.9330   79.1040   24.3210 N   0  0  0  0  0  0  0  0  0  0  0  0
   53.3070   80.3120   24.6880 C   0  0  0  0  0  0  0  0  0  0  0  0
   53.0840   81.5200   23.8520 C   0  0  0  0  0  0  0  0  0  0  0  0
   53.9060   80.2860   25.9370 N   0  0  0  0  0  0  0  0  0  0  0  0
   54.3530   81.4320   26.7340 C   0  0  0  0  0  0  0  0  0  0  0  0
   55.6000   82.0890   26.1430 C   0  0  0  0  0  0  0  0  0  0  0  0
   53.2580   82.4600   27.0320 C   0  0  0  0  0  0  0  0  0  0  0  0
   55.8750   78.8150   27.7510 N   0  0  0  0  0  0  0  0  0  0  0  0
   58.2400   80.1380   31.0010 C   0  0  0  0  0  0  0  0  0  0  0  0
   58.8480   81.2490   31.6040 C   0  0  0  0  0  0  0  0  0  0  0  0
   62.3420   82.3180   34.2950 N   0  0  0  0  0  0  0  0  0  0  0  0
   61.6310   81.0530   34.0950 C   0  0  0  0  0  0  0  0  0  0  0  0
   62.5310   79.8550   34.3950 C   0  0  0  0  0  0  0  0  0  0  0  0
   60.2850   80.9430   34.8200 C   0  0  0  0  0  0  0  0  0  0  0  0
   62.7462   83.0723   37.6133 H   0  0  0  0  0  0  0  0  0  0  0  0
   61.4104   82.0611   36.9654 H   0  0  0  0  0  0  0  0  0  0  0  0
   63.0933   81.4333   36.9654 H   0  0  0  0  0  0  0  0  0  0  0  0
   63.8205   85.0878   33.4535 H   0  0  0  0  0  0  0  0  0  0  0  0
   61.8915   84.7099   31.1404 H   0  0  0  0  0  0  0  0  0  0  0  0
   61.8430   83.2934   29.9843 H   0  0  0  0  0  0  0  0  0  0  0  0
   60.4421   82.5215   28.8780 H   0  0  0  0  0  0  0  0  0  0  0  0
   59.3580   80.5528   27.8210 H   0  0  0  0  0  0  0  0  0  0  0  0
   58.4460   78.0960   28.5730 H   0  0  0  0  0  0  0  0  0  0  0  0
   54.1824   76.4144   30.1623 H   0  0  0  0  0  0  0  0  0  0  0  0
   53.1651   77.1810   25.3192 H   0  0  0  0  0  0  0  0  0  0  0  0
   52.9230   82.3919   24.5031 H   0  0  0  0  0  0  0  0  0  0  0  0
   53.9652   81.6942   23.2170 H   0  0  0  0  0  0  0  0  0  0  0  0
   52.1987   81.3681   23.2170 H   0  0  0  0  0  0  0  0  0  0  0  0
   54.6244   81.0076   27.7119 H   0  0  0  0  0  0  0  0  0  0  0  0
   56.2540   82.4335   26.9576 H   0  0  0  0  0  0  0  0  0  0  0  0
   56.1404   81.3585   25.5230 H   0  0  0  0  0  0  0  0  0  0  0  0
   55.3031   82.9478   25.5230 H   0  0  0  0  0  0  0  0  0  0  0  0
   53.1429   82.5680   28.1206 H   0  0  0  0  0  0  0  0  0  0  0  0
   53.5369   83.4300   26.5947 H   0  0  0  0  0  0  0  0  0  0  0  0
   52.3075   82.1204   26.5947 H   0  0  0  0  0  0  0  0  0  0  0  0
   57.6124   79.4721   31.6114 H   0  0  0  0  0  0  0  0  0  0  0  0
   58.6965   81.4409   32.6765 H   0  0  0  0  0  0  0  0  0  0  0  0
   61.3708   81.0426   33.0263 H   0  0  0  0  0  0  0  0  0  0  0  0
   62.6247   79.7303   35.4839 H   0  0  0  0  0  0  0  0  0  0  0  0
   62.0900   78.9467   33.9585 H   0  0  0  0  0  0  0  0  0  0  0  0
   63.5262   80.0256   33.9585 H   0  0  0  0  0  0  0  0  0  0  0  0
   60.4519   80.9566   35.9072 H   0  0  0  0  0  0  0  0  0  0  0  0
   59.6454   81.7919   34.5366 H   0  0  0  0  0  0  0  0  0  0  0  0
   59.7917   80.0015   34.5366 H   0  0  0  0  0  0  0  0  0  0  0  0
  1  2  1  0
  2  3  2  0
  3  4  1  0
  4  5  2  0
  5  6  1  0
  6  7  2  0
  6  8  1  0
  8  9  1  0
  9 10  2  0
  9 11  1  0
 11 12  1  0
 12 13  2  0
 13 14  1  0
 14 15  1  0
 15 16  1  0
 16 17  2  0
 17 18  1  0
 18 19  2  0
 19 20  1  0
 19 21  1  0
 21 22  1  0
 22 23  2  0
 23 24  1  0
 24 25  2  0
 25 26  1  0
 25 27  1  0
 27 28  1  0
 28 29  1  0
 28 30  1  0
 21 31  2  0
 14 32  2  0
 32 33  1  0
  5 34  1  0
 34 35  1  0
 35 36  1  0
 35 37  1  0
 34  2  1  0
 33 11  2  0
 31 16  1  0
 27 22  1  0
  1 38  1  0
  1 39  1  0
  1 40  1  0
  4 41  1  0
  8 42  1  0
  8 43  1  0
 12 44  1  0
 13 45  1  0
 15 46  1  0
 18 47  1  0
 23 48  1  0
 26 49  1  0
 26 50  1  0
 26 51  1  0
 28 52  1  0
 29 53  1  0
 29 54  1  0
 29 55  1  0
 30 56  1  0
 30 57  1  0
 30 58  1  0
 32 59  1  0
 33 60  1  0
 35 61  1  0
 36 62  1  0
 36 63  1  0
 36 64  1  0
 37 65  1  0
 37 66  1  0
 37 67  1  0
M  END
>  <meeko>  (1) 
{"is_sidechain": false}

>  <smiles>  (1) 
Cc1ncc(C(=O)CC(=O)c2ccc(Nc3ncc(F)c(-c4cnc(C)n4C(C)C)n3)cc2)n1C(C)C

>  <vina_score>  (1) 
-8.984

>  <job_id>  (1) 
9bad2bd0a4b55b44

$$$$
