
     RDKit          3D

 56 59  0  0  0  0  0  0  0  0999 V2000
   61.4960   80.5550   33.2700 N   0  0  0  0  0  0  0  0  0  0  0  0
   60.0610   81.4630   32.9730 S   0  0  0  0  0  0  0  0  0  0  0  0
   59.1060   81.1650   34.0880 O   0  0  0  0  0  0  0  0  0  0  0  0
   60.3800   82.9330   32.9250 O   0  0  0  0  0  0  0  0  0  0  0  0
   59.3480   80.9850   31.4320 C   0  0  0  0  0  0  0  0  0  0  0  0
   58.1850   80.2320   31.3790 C   0  0  0  0  0  0  0  0  0  0  0  0
   57.6020   79.8420   30.1890 C   0  0  0  0  0  0  0  0  0  0  0  0
   58.2070   80.2190   28.9900 C   0  0  0  0  0  0  0  0  0  0  0  0
   57.6840   79.8370   27.8060 N   0  0  0  0  0  0  0  0  0  0  0  0
   56.9110   80.3300   26.9800 C   0  0  0  0  0  0  0  0  0  0  0  0
   56.2030   81.5900   26.9370 C   0  0  0  0  0  0  0  0  0  0  0  0
   56.4220   82.7650   27.6340 C   0  0  0  0  0  0  0  0  0  0  0  0
   57.3910   83.0330   28.5710 O   0  0  0  0  0  0  0  0  0  0  0  0
   55.5080   83.7040   27.2700 N   0  0  0  0  0  0  0  0  0  0  0  0
   54.6910   83.1750   26.3480 C   0  0  0  0  0  0  0  0  0  0  0  0
   53.6290   83.7740   25.7080 C   0  0  0  0  0  0  0  0  0  0  0  0
   52.9350   83.0000   24.7800 C   0  0  0  0  0  0  0  0  0  0  0  0
   53.2960   81.6850   24.5100 C   0  0  0  0  0  0  0  0  0  0  0  0
   52.4210   80.7400   23.2920 S   0  0  0  0  0  6  0  0  0  0  0  0
   50.6850   81.1770   23.5920 N   0  0  0  0  0  0  0  0  0  0  0  0
   51.6650   80.2320   24.7700 O   0  0  0  0  0  0  0  0  0  0  0  0
   52.5460   81.8270   21.6700 N   0  0  0  0  0  0  0  0  0  0  0  0
   51.7950   81.0070   20.8950 O   0  0  0  0  0  0  0  0  0  0  0  0
   54.3790   81.1390   25.1920 C   0  0  0  0  0  0  0  0  0  0  0  0
   54.7120   79.8100   24.8460 N   0  0  0  0  0  0  0  0  0  0  0  0
   54.0340   78.6610   25.1840 N   0  0  0  0  0  0  0  0  0  0  0  0
   53.7720   78.1520   26.4690 C   0  0  0  0  0  0  0  0  0  0  0  0
   54.2390   78.5200   27.7090 C   0  0  0  0  0  0  0  0  0  0  0  0
   53.6850   77.7120   28.6880 C   0  0  0  0  0  0  0  0  0  0  0  0
   52.8710   76.8430   28.0200 C   0  0  0  0  0  0  0  0  0  0  0  0
   52.9350   77.1160   26.7100 N   0  0  0  0  0  0  0  0  0  0  0  0
   55.1010   81.8840   26.1330 C   0  0  0  0  0  0  0  0  0  0  0  0
   59.3840   80.9810   29.0280 C   0  0  0  0  0  0  0  0  0  0  0  0
   59.9460   81.3570   30.2280 C   0  0  0  0  0  0  0  0  0  0  0  0
   62.3520   81.0590   32.9170 H   0  0  0  0  0  0  0  0  0  0  0  0
   61.6300   80.5000   34.3120 H   0  0  0  0  0  0  0  0  0  0  0  0
   57.7069   79.9329   32.3234 H   0  0  0  0  0  0  0  0  0  0  0  0
   56.6779   79.2453   30.1869 H   0  0  0  0  0  0  0  0  0  0  0  0
   56.7245   79.6864   26.1077 H   0  0  0  0  0  0  0  0  0  0  0  0
   58.1590   82.4140   28.8010 H   0  0  0  0  0  0  0  0  0  0  0  0
   55.4490   84.6950   27.6520 H   0  0  0  0  0  0  0  0  0  0  0  0
   53.3420   84.8146   25.9194 H   0  0  0  0  0  0  0  0  0  0  0  0
   52.0795   83.4409   24.2474 H   0  0  0  0  0  0  0  0  0  0  0  0
   53.3020   80.2230   22.4640 H   0  0  0  0  0  0  0  0  0  0  0  0
   50.1700   80.6390   22.8580 H   0  0  0  0  0  0  0  0  0  0  0  0
   50.5040   80.6160   24.4780 H   0  0  0  0  0  0  0  0  0  0  0  0
   51.8770   82.5330   22.0690 H   0  0  0  0  0  0  0  0  0  0  0  0
   51.4150   81.4810   20.0970 H   0  0  0  0  0  0  0  0  0  0  0  0
   55.5870   79.7050   24.2440 H   0  0  0  0  0  0  0  0  0  0  0  0
   53.6660   78.0940   24.3510 H   0  0  0  0  0  0  0  0  0  0  0  0
   54.9500   79.3381   27.8963 H   0  0  0  0  0  0  0  0  0  0  0  0
   53.8629   77.7601   29.7725 H   0  0  0  0  0  0  0  0  0  0  0  0
   52.2634   76.0503   28.4809 H   0  0  0  0  0  0  0  0  0  0  0  0
   52.3740   76.5530   26.0100 H   0  0  0  0  0  0  0  0  0  0  0  0
   59.8651   81.2827   28.0859 H   0  0  0  0  0  0  0  0  0  0  0  0
   60.8704   81.9532   30.2369 H   0  0  0  0  0  0  0  0  0  0  0  0
  1  2  1  0
  2  3  2  0
  2  4  2  0
  2  5  1  0
  5  6  1  0
  6  7  2  0
  7  8  1  0
  8  9  1  0
  9 10  2  3
 10 11  1  0
 11 12  2  0
 12 13  1  0
 12 14  1  0
 14 15  1  0
 15 16  2  0
 16 17  1  0
 17 18  2  0
 18 19  1  0
 19 20  1  0
 19 21  2  0
 19 22  1  0
 22 23  1  0
 18 24  1  0
 24 25  1  0
 25 26  1  0
 26 27  1  0
 27 28  2  0
 28 29  1  0
 29 30  2  0
 30 31  1  0
 24 32  2  0
  8 33  2  0
 33 34  1  0
 34  5  2  0
 32 11  1  0
 32 15  1  0
 31 27  1  0
  1 35  1  0
  1 36  1  0
  6 37  1  0
  7 38  1  0
 10 39  1  0
 13 40  1  0
 14 41  1  0
 16 42  1  0
 17 43  1  0
 19 44  1  0
 20 45  1  0
 20 46  1  0
 22 47  1  0
 23 48  1  0
 25 49  1  0
 26 50  1  0
 28 51  1  0
 29 52  1  0
 30 53  1  0
 31 54  1  0
 33 55  1  0
 34 56  1  0
M  END
>  <meeko>  (1) 
{"is_sidechain": false}

>  <smiles>  (1) 
NS(=O)(=O)c1ccc(N=Cc2c(O)[nH]c3ccc([SH](N)(=O)NO)c(NNc4ccc[nH]4)c23)cc1

>  <vina_score>  (1) 
-9.136

>  <job_id>  (1) 
9bd1b489ba73a607

$$$$
