
     RDKit          3D

 50 54  0  0  0  0  0  0  0  0999 V2000
   52.5100   79.8600   26.1690 N   0  0  0  0  0  0  0  0  0  0  0  0
   53.3780   78.4280   26.3570 S   0  0  0  0  0  0  0  0  0  0  0  0
   53.6850   77.9820   25.0180 O   0  0  0  0  0  0  0  0  0  0  0  0
   52.6800   77.6030   27.3120 O   0  0  0  0  0  0  0  0  0  0  0  0
   54.8720   79.0180   27.1100 C   0  0  0  0  0  0  0  0  0  0  0  0
   55.4140   78.3180   28.1920 C   0  0  0  0  0  0  0  0  0  0  0  0
   56.5940   78.7760   28.7830 C   0  0  0  0  0  0  0  0  0  0  0  0
   57.2450   79.9160   28.2930 C   0  0  0  0  0  0  0  0  0  0  0  0
   58.4150   80.3670   28.9300 N   0  0  0  0  0  0  0  0  0  0  0  0
   58.1850   80.6300   30.1310 N   0  0  0  0  0  0  0  0  0  0  0  0
   59.3520   81.0930   30.7660 C   0  0  0  0  0  0  0  0  0  0  0  0
   60.3270   81.7520   30.0110 C   0  0  0  0  0  0  0  0  0  0  0  0
   61.4830   82.2510   30.6190 C   0  0  0  0  0  0  0  0  0  0  0  0
   61.6720   82.1070   31.9960 C   0  0  0  0  0  0  0  0  0  0  0  0
   63.1470   82.7350   32.7780 S   0  0  0  0  0  0  0  0  0  0  0  0
   63.6120   83.8530   31.5770 C   0  0  0  0  0  0  0  0  0  0  0  0
   64.7690   83.5580   30.6660 C   0  0  0  0  0  0  0  0  0  0  0  0
   65.4690   82.5610   30.6450 O   0  0  0  0  0  0  0  0  0  0  0  0
   64.8930   84.6530   29.8410 N   0  0  0  0  0  0  0  0  0  0  0  0
   63.9500   85.5760   30.1350 C   0  0  0  0  0  0  0  0  0  0  0  0
   63.7580   86.7750   29.5790 C   0  0  0  0  0  0  0  0  0  0  0  0
   62.6850   87.6270   30.0690 C   0  0  0  0  0  0  0  0  0  0  0  0
   61.8480   87.2540   31.0630 C   0  0  0  0  0  0  0  0  0  0  0  0
   60.8180   88.0480   31.5360 N   0  0  0  0  0  0  0  0  0  0  0  0
   59.9490   87.6330   32.5110 C   0  0  0  0  0  0  0  0  0  0  0  0
   60.0570   86.4280   33.0850 C   0  0  0  0  0  0  0  0  0  0  0  0
   61.1290   85.5400   32.6610 C   0  0  0  0  0  0  0  0  0  0  0  0
   62.0170   85.8980   31.7040 C   0  0  0  0  0  0  0  0  0  0  0  0
   63.1270   85.0600   31.2220 C   0  0  0  0  0  0  0  0  0  0  0  0
   60.6980   81.4540   32.7570 C   0  0  0  0  0  0  0  0  0  0  0  0
   59.5430   80.9580   32.1470 C   0  0  0  0  0  0  0  0  0  0  0  0
   56.6850   80.6040   27.2060 C   0  0  0  0  0  0  0  0  0  0  0  0
   55.5060   80.1560   26.6060 C   0  0  0  0  0  0  0  0  0  0  0  0
   53.0470   80.6060   25.7300 H   0  0  0  0  0  0  0  0  0  0  0  0
   51.6480   79.6590   25.6600 H   0  0  0  0  0  0  0  0  0  0  0  0
   54.9159   77.4149   28.5744 H   0  0  0  0  0  0  0  0  0  0  0  0
   57.0169   78.2356   29.6427 H   0  0  0  0  0  0  0  0  0  0  0  0
   60.1832   81.8792   28.9279 H   0  0  0  0  0  0  0  0  0  0  0  0
   62.2464   82.7587   30.0112 H   0  0  0  0  0  0  0  0  0  0  0  0
   65.6060   84.7260   29.1310 H   0  0  0  0  0  0  0  0  0  0  0  0
   64.4055   87.1156   28.7576 H   0  0  0  0  0  0  0  0  0  0  0  0
   62.5490   88.6177   29.6107 H   0  0  0  0  0  0  0  0  0  0  0  0
   60.6720   88.9540   31.1080 H   0  0  0  0  0  0  0  0  0  0  0  0
   59.1412   88.3078   32.8306 H   0  0  0  0  0  0  0  0  0  0  0  0
   59.3469   86.1145   33.8644 H   0  0  0  0  0  0  0  0  0  0  0  0
   61.2204   84.5499   33.1314 H   0  0  0  0  0  0  0  0  0  0  0  0
   60.8415   81.3302   33.8405 H   0  0  0  0  0  0  0  0  0  0  0  0
   58.7768   80.4570   32.7568 H   0  0  0  0  0  0  0  0  0  0  0  0
   57.1807   81.5076   26.8215 H   0  0  0  0  0  0  0  0  0  0  0  0
   55.0812   80.6937   25.7456 H   0  0  0  0  0  0  0  0  0  0  0  0
  1  2  1  0
  2  3  2  0
  2  4  2  0
  2  5  1  0
  5  6  1  0
  6  7  2  0
  7  8  1  0
  8  9  1  0
  9 10  2  3
 10 11  1  0
 11 12  1  0
 12 13  2  0
 13 14  1  0
 14 15  1  0
 15 16  1  0
 16 17  1  0
 17 18  2  0
 17 19  1  0
 19 20  1  0
 20 21  2  0
 21 22  1  0
 22 23  2  0
 23 24  1  0
 24 25  1  0
 25 26  2  0
 26 27  1  0
 27 28  2  0
 28 29  1  0
 14 30  2  0
 30 31  1  0
  8 32  2  0
 32 33  1  0
 33  5  2  0
 31 11  2  0
 29 16  2  0
 29 20  1  0
 28 23  1  0
  1 34  1  0
  1 35  1  0
  6 36  1  0
  7 37  1  0
 12 38  1  0
 13 39  1  0
 19 40  1  0
 21 41  1  0
 22 42  1  0
 24 43  1  0
 25 44  1  0
 26 45  1  0
 27 46  1  0
 30 47  1  0
 31 48  1  0
 32 49  1  0
 33 50  1  0
M  END
>  <meeko>  (1) 
{"is_sidechain": false}

>  <smiles>  (1) 
NS(=O)(=O)c1ccc(N=Nc2ccc(Sc3c(=O)[nH]c4ccc5[nH]cccc5c34)cc2)cc1

>  <vina_score>  (1) 
-7.614

>  <job_id>  (1) 
9c260e440b7d8bff

$$$$
