
     RDKit          3D

 43 46  0  0  0  0  0  0  0  0999 V2000
   61.1850   82.1820   35.8700 N   0  0  0  0  0  0  0  0  0  0  0  0
   60.7030   80.8010   35.0500 S   0  0  0  0  0  0  0  0  0  0  0  0
   59.6290   80.2320   35.8290 O   0  0  0  0  0  0  0  0  0  0  0  0
   61.9110   80.0710   34.7440 O   0  0  0  0  0  0  0  0  0  0  0  0
   60.0490   81.4770   33.5520 C   0  0  0  0  0  0  0  0  0  0  0  0
   60.9160   81.9370   32.5570 C   0  0  0  0  0  0  0  0  0  0  0  0
   60.3870   82.4820   31.3850 C   0  0  0  0  0  0  0  0  0  0  0  0
   59.0000   82.5570   31.1940 C   0  0  0  0  0  0  0  0  0  0  0  0
   58.4700   83.1180   30.0190 N   0  0  0  0  0  0  0  0  0  0  0  0
   58.2670   82.4010   29.0090 N   0  0  0  0  0  0  0  0  0  0  0  0
   58.5840   80.7590   28.9550 S   0  0  0  0  0  0  0  0  0  0  0  0
   57.6280   80.1860   27.7170 N   0  0  0  0  0  0  0  0  0  0  0  0
   56.4910   79.4840   27.9630 C   0  0  0  0  0  0  0  0  0  0  0  0
   56.2780   78.4960   28.9050 C   0  0  0  0  0  0  0  0  0  0  0  0
   57.0610   77.9330   29.8170 O   0  0  0  0  0  0  0  0  0  0  0  0
   54.9850   78.0710   28.7820 N   0  0  0  0  0  0  0  0  0  0  0  0
   54.3570   78.7260   27.7500 C   0  0  0  0  0  0  0  0  0  0  0  0
   53.0540   78.5930   27.2600 C   0  0  0  0  0  0  0  0  0  0  0  0
   52.6840   79.4000   26.1770 C   0  0  0  0  0  0  0  0  0  0  0  0
   53.5720   80.3140   25.5940 C   0  0  0  0  0  0  0  0  0  0  0  0
   53.1640   81.1450   24.4670 C   0  0  0  0  0  0  0  0  0  0  0  0
   52.8880   82.4830   24.2720 C   0  0  0  0  0  0  0  0  0  0  0  0
   52.5410   82.7160   22.9640 N   0  0  0  0  0  0  0  0  0  0  0  0
   52.6170   81.5260   22.4150 C   0  0  0  0  0  0  0  0  0  0  0  0
   52.9870   80.5230   23.2550 O   0  0  0  0  0  0  0  0  0  0  0  0
   54.8760   80.4210   26.1150 C   0  0  0  0  0  0  0  0  0  0  0  0
   55.2810   79.6190   27.2080 C   0  0  0  0  0  0  0  0  0  0  0  0
   58.1450   82.1230   32.2160 C   0  0  0  0  0  0  0  0  0  0  0  0
   58.6640   81.5800   33.3940 C   0  0  0  0  0  0  0  0  0  0  0  0
   61.8310   82.7250   35.2970 H   0  0  0  0  0  0  0  0  0  0  0  0
   61.5530   81.9330   36.7890 H   0  0  0  0  0  0  0  0  0  0  0  0
   62.0052   81.8704   32.6957 H   0  0  0  0  0  0  0  0  0  0  0  0
   61.0652   82.8561   30.6040 H   0  0  0  0  0  0  0  0  0  0  0  0
   57.6520   80.7630   26.8800 H   0  0  0  0  0  0  0  0  0  0  0  0
   57.3970   78.6700   30.3640 H   0  0  0  0  0  0  0  0  0  0  0  0
   54.5710   77.3530   29.3580 H   0  0  0  0  0  0  0  0  0  0  0  0
   52.3459   77.8808   27.7087 H   0  0  0  0  0  0  0  0  0  0  0  0
   51.6651   79.3138   25.7715 H   0  0  0  0  0  0  0  0  0  0  0  0
   52.9388   83.2545   25.0545 H   0  0  0  0  0  0  0  0  0  0  0  0
   52.3970   81.3527   21.3512 H   0  0  0  0  0  0  0  0  0  0  0  0
   55.5852   81.1336   25.6687 H   0  0  0  0  0  0  0  0  0  0  0  0
   57.0558   82.2106   32.0896 H   0  0  0  0  0  0  0  0  0  0  0  0
   57.9881   81.2363   34.1908 H   0  0  0  0  0  0  0  0  0  0  0  0
  1  2  1  0
  2  3  2  0
  2  4  2  0
  2  5  1  0
  5  6  1  0
  6  7  2  0
  7  8  1  0
  8  9  1  0
  9 10  2  3
 10 11  1  0
 11 12  1  0
 12 13  1  0
 13 14  2  0
 14 15  1  0
 14 16  1  0
 16 17  1  0
 17 18  2  0
 18 19  1  0
 19 20  2  0
 20 21  1  0
 21 22  2  0
 22 23  1  0
 23 24  2  0
 24 25  1  0
 20 26  1  0
 26 27  2  0
  8 28  2  0
 28 29  1  0
 29  5  2  0
 27 13  1  0
 27 17  1  0
 25 21  1  0
  1 30  1  0
  1 31  1  0
  6 32  1  0
  7 33  1  0
 12 34  1  0
 15 35  1  0
 16 36  1  0
 18 37  1  0
 19 38  1  0
 22 39  1  0
 24 40  1  0
 26 41  1  0
 28 42  1  0
 29 43  1  0
M  END
>  <meeko>  (1) 
{"is_sidechain": false}

>  <smiles>  (1) 
NS(=O)(=O)c1ccc(N=NSNc2c(O)[nH]c3ccc(-c4cnco4)cc23)cc1

>  <vina_score>  (1) 
-8.526

>  <job_id>  (1) 
9c43ebb5dc6c138f

$$$$
