
     RDKit          3D

 37 39  0  0  0  0  0  0  0  0999 V2000
   49.3610   80.9820   22.2950 N   0  0  0  0  0  0  0  0  0  0  0  0
   50.8180   81.4800   21.6290 S   0  0  0  0  0  0  0  0  0  0  0  0
   51.0600   80.6070   20.5040 O   0  0  0  0  0  0  0  0  0  0  0  0
   50.7190   82.9150   21.4880 O   0  0  0  0  0  0  0  0  0  0  0  0
   51.9620   81.0970   22.9220 C   0  0  0  0  0  0  0  0  0  0  0  0
   52.3340   79.7720   23.1450 C   0  0  0  0  0  0  0  0  0  0  0  0
   53.2580   79.4750   24.1500 C   0  0  0  0  0  0  0  0  0  0  0  0
   53.8270   80.4920   24.9380 C   0  0  0  0  0  0  0  0  0  0  0  0
   54.8000   80.1760   25.9960 C   0  0  0  0  0  0  0  0  0  0  0  0
   55.9350   80.9700   26.1990 C   0  0  0  0  0  0  0  0  0  0  0  0
   56.8590   80.6650   27.2080 C   0  0  0  0  0  0  0  0  0  0  0  0
   56.7010   79.5590   28.0620 C   0  0  0  0  0  0  0  0  0  0  0  0
   57.7610   79.2350   29.1970 C   0  0  0  0  0  0  0  0  0  0  0  0
   57.3790   79.4910   30.6830 C   0  0  0  0  0  0  0  0  0  0  0  0
   58.8570   79.8570   30.9290 C   0  0  0  0  0  0  0  0  0  0  0  0
   58.9410   80.2230   29.4330 C   0  0  0  0  0  0  0  0  0  0  0  0
   55.5550   78.7730   27.8420 C   0  0  0  0  0  0  0  0  0  0  0  0
   54.6250   79.0710   26.8370 C   0  0  0  0  0  0  0  0  0  0  0  0
   53.4430   81.8220   24.6830 C   0  0  0  0  0  0  0  0  0  0  0  0
   52.5200   82.1280   23.6800 C   0  0  0  0  0  0  0  0  0  0  0  0
   48.9090   81.7670   22.7650 H   0  0  0  0  0  0  0  0  0  0  0  0
   49.5160   80.1740   22.8990 H   0  0  0  0  0  0  0  0  0  0  0  0
   51.9028   78.9656   22.5336 H   0  0  0  0  0  0  0  0  0  0  0  0
   53.5454   78.4283   24.3281 H   0  0  0  0  0  0  0  0  0  0  0  0
   56.1043   81.8468   25.5567 H   0  0  0  0  0  0  0  0  0  0  0  0
   57.7383   81.3134   27.3362 H   0  0  0  0  0  0  0  0  0  0  0  0
   57.9186   78.2208   28.8013 H   0  0  0  0  0  0  0  0  0  0  0  0
   56.6697   80.3172   30.8386 H   0  0  0  0  0  0  0  0  0  0  0  0
   56.8629   78.7303   31.2872 H   0  0  0  0  0  0  0  0  0  0  0  0
   59.0128   80.7005   31.6177 H   0  0  0  0  0  0  0  0  0  0  0  0
   59.5600   79.1497   31.3933 H   0  0  0  0  0  0  0  0  0  0  0  0
   58.7122   81.2743   29.2041 H   0  0  0  0  0  0  0  0  0  0  0  0
   59.8827   80.1456   28.8698 H   0  0  0  0  0  0  0  0  0  0  0  0
   55.3831   77.8942   28.4809 H   0  0  0  0  0  0  0  0  0  0  0  0
   53.7434   78.4262   26.7070 H   0  0  0  0  0  0  0  0  0  0  0  0
   53.8773   82.6346   25.2840 H   0  0  0  0  0  0  0  0  0  0  0  0
   52.2351   83.1732   23.4890 H   0  0  0  0  0  0  0  0  0  0  0  0
  1  2  1  0
  2  3  2  0
  2  4  2  0
  2  5  1  0
  5  6  1  0
  6  7  2  0
  7  8  1  0
  8  9  1  0
  9 10  1  0
 10 11  2  0
 11 12  1  0
 12 13  1  0
 13 14  1  0
 14 15  1  0
 15 16  1  0
 12 17  2  0
 17 18  1  0
  8 19  2  0
 19 20  1  0
 20  5  2  0
 18  9  2  0
 16 13  1  0
  1 21  1  0
  1 22  1  0
  6 23  1  0
  7 24  1  0
 10 25  1  0
 11 26  1  0
 13 27  1  0
 14 28  1  0
 14 29  1  0
 15 30  1  0
 15 31  1  0
 16 32  1  0
 16 33  1  0
 17 34  1  0
 18 35  1  0
 19 36  1  0
 20 37  1  0
M  END
>  <meeko>  (1) 
{"is_sidechain": false}

>  <smiles>  (1) 
NS(=O)(=O)c1ccc(-c2ccc(C3CCC3)cc2)cc1

>  <vina_score>  (1) 
-8.329

>  <job_id>  (1) 
9c4f2833797d519d

$$$$
