
     RDKit          3D

 42 44  0  0  0  0  0  0  0  0999 V2000
   55.8320   78.6710   28.8210 O   0  0  0  0  0  0  0  0  0  0  0  0
   56.2350   79.3620   27.8930 C   0  0  0  0  0  0  0  0  0  0  0  0
   57.5440   79.7780   27.7640 N   0  0  0  0  0  0  0  0  0  0  0  0
   58.5260   79.4890   28.7840 C   0  0  0  0  0  0  0  0  0  0  0  0
   58.5360   80.5660   29.8410 C   0  0  0  0  0  0  0  0  0  0  0  0
   58.9350   81.8740   29.5140 C   0  0  0  0  0  0  0  0  0  0  0  0
   58.9700   82.8720   30.4910 C   0  0  0  0  0  0  0  0  0  0  0  0
   58.6130   82.5640   31.7980 C   0  0  0  0  0  0  0  0  0  0  0  0
   58.6510   83.5230   32.7330 F   0  0  0  0  0  0  0  0  0  0  0  0
   58.2260   81.2730   32.1330 C   0  0  0  0  0  0  0  0  0  0  0  0
   57.8870   80.9770   33.3960 F   0  0  0  0  0  0  0  0  0  0  0  0
   58.1870   80.2710   31.1670 C   0  0  0  0  0  0  0  0  0  0  0  0
   55.2870   79.8370   26.8460 C   0  0  0  0  0  0  0  0  0  0  0  0
   54.2340   79.0030   26.4720 C   0  0  0  0  0  0  0  0  0  0  0  0
   53.3200   79.4150   25.4920 C   0  0  0  0  0  0  0  0  0  0  0  0
   53.4280   80.6580   24.8470 C   0  0  0  0  0  0  0  0  0  0  0  0
   52.5250   81.0600   23.8810 N   0  0  0  0  0  0  0  0  0  0  0  0
   51.0860   81.2020   24.1620 C   0  0  0  0  0  0  0  0  0  0  0  0
   50.2730   80.9840   22.8740 C   0  0  0  0  0  0  0  0  0  0  0  0
   50.5970   81.8960   21.8160 O   0  0  0  0  0  0  0  0  0  0  0  0
   51.9550   82.3550   21.8600 C   0  0  0  0  0  0  0  0  0  0  0  0
   52.9360   81.3580   22.5000 C   0  0  0  0  0  0  0  0  0  0  0  0
   54.5090   81.4680   25.2330 C   0  0  0  0  0  0  0  0  0  0  0  0
   55.4310   81.0700   26.2120 C   0  0  0  0  0  0  0  0  0  0  0  0
   57.7550   80.5270   27.1210 H   0  0  0  0  0  0  0  0  0  0  0  0
   58.2838   78.5246   29.2545 H   0  0  0  0  0  0  0  0  0  0  0  0
   59.5198   79.4478   28.3141 H   0  0  0  0  0  0  0  0  0  0  0  0
   59.2222   82.1137   28.4796 H   0  0  0  0  0  0  0  0  0  0  0  0
   59.2781   83.8945   30.2274 H   0  0  0  0  0  0  0  0  0  0  0  0
   57.8832   79.2505   31.4431 H   0  0  0  0  0  0  0  0  0  0  0  0
   54.1200   78.0178   26.9478 H   0  0  0  0  0  0  0  0  0  0  0  0
   52.4923   78.7437   25.2197 H   0  0  0  0  0  0  0  0  0  0  0  0
   50.7862   80.4557   24.9124 H   0  0  0  0  0  0  0  0  0  0  0  0
   50.8915   82.2150   24.5440 H   0  0  0  0  0  0  0  0  0  0  0  0
   50.4593   79.9604   22.5169 H   0  0  0  0  0  0  0  0  0  0  0  0
   49.2179   81.1586   23.1314 H   0  0  0  0  0  0  0  0  0  0  0  0
   52.2863   82.5521   20.8298 H   0  0  0  0  0  0  0  0  0  0  0  0
   51.9641   83.2567   22.4899 H   0  0  0  0  0  0  0  0  0  0  0  0
   52.9431   80.4273   21.9137 H   0  0  0  0  0  0  0  0  0  0  0  0
   53.9429   81.8008   22.5116 H   0  0  0  0  0  0  0  0  0  0  0  0
   54.6367   82.4483   24.7507 H   0  0  0  0  0  0  0  0  0  0  0  0
   56.2683   81.7313   26.4797 H   0  0  0  0  0  0  0  0  0  0  0  0
  1  2  2  0
  2  3  1  0
  3  4  1  0
  4  5  1  0
  5  6  1  0
  6  7  2  0
  7  8  1  0
  8  9  1  0
  8 10  2  0
 10 11  1  0
 10 12  1  0
  2 13  1  0
 13 14  1  0
 14 15  2  0
 15 16  1  0
 16 17  1  0
 17 18  1  0
 18 19  1  0
 19 20  1  0
 20 21  1  0
 21 22  1  0
 16 23  2  0
 23 24  1  0
 12  5  2  0
 24 13  2  0
 22 17  1  0
  3 25  1  0
  4 26  1  0
  4 27  1  0
  6 28  1  0
  7 29  1  0
 12 30  1  0
 14 31  1  0
 15 32  1  0
 18 33  1  0
 18 34  1  0
 19 35  1  0
 19 36  1  0
 21 37  1  0
 21 38  1  0
 22 39  1  0
 22 40  1  0
 23 41  1  0
 24 42  1  0
M  END
>  <meeko>  (1) 
{"is_sidechain": false}

>  <smiles>  (1) 
O=C(NCc1ccc(F)c(F)c1)c1ccc(N2CCOCC2)cc1

>  <vina_score>  (1) 
-8.018

>  <job_id>  (1) 
9c94032aa2a25a0a

$$$$
