
     RDKit          3D

 74 79  0  0  0  0  0  0  0  0999 V2000
   64.7490   81.7360   31.0540 C   0  0  0  0  0  0  0  0  0  0  0  0
   65.1980   83.1660   30.8970 C   0  0  0  0  0  0  0  0  0  0  0  0
   65.9950   83.4930   30.0160 O   0  0  0  0  0  0  0  0  0  0  0  0
   64.6750   84.1780   31.8910 C   0  0  0  0  0  0  0  0  0  0  0  0
   63.6790   83.5350   32.8530 C   0  0  0  0  0  0  0  0  0  0  0  0
   62.4020   84.2790   32.8950 N   0  0  0  0  0  0  0  0  0  0  0  0
   61.9270   84.5340   31.5060 C   0  0  0  0  0  0  0  0  0  0  0  0
   61.3670   83.2940   30.7740 C   0  0  0  0  0  0  0  0  0  0  0  0
   60.2940   82.6620   31.5620 N   0  0  0  0  0  0  0  0  0  0  0  0
   59.5390   81.6540   30.9450 C   0  0  0  0  0  0  0  0  0  0  0  0
   58.5790   80.9420   31.6650 C   0  0  0  0  0  0  0  0  0  0  0  0
   57.8100   79.9410   31.0600 C   0  0  0  0  0  0  0  0  0  0  0  0
   57.9900   79.6490   29.7170 C   0  0  0  0  0  0  0  0  0  0  0  0
   57.2890   78.6820   29.0230 N   0  0  0  0  0  0  0  0  0  0  0  0
   56.0670   78.6290   28.3750 C   0  0  0  0  0  0  0  0  0  0  0  0
   55.3640   77.4800   28.3180 N   0  0  0  0  0  0  0  0  0  0  0  0
   54.1750   77.4540   27.6710 C   0  0  0  0  0  0  0  0  0  0  0  0
   53.6920   78.6130   27.0820 C   0  0  0  0  0  0  0  0  0  0  0  0
   52.5540   78.9820   26.3250 C   0  0  0  0  0  0  0  0  0  0  0  0
   52.6800   80.3220   25.9990 C   0  0  0  0  0  0  0  0  0  0  0  0
   53.8490   80.7780   26.5840 N   0  0  0  0  0  0  0  0  0  0  0  0
   54.4870   79.7380   27.2110 C   0  0  0  0  0  0  0  0  0  0  0  0
   55.6730   79.7930   27.8330 N   0  0  0  0  0  0  0  0  0  0  0  0
   54.3130   82.1620   26.4110 C   0  0  0  0  0  0  0  0  0  0  0  0
   55.3500   82.2360   25.2620 C   0  0  0  0  0  0  0  0  0  0  0  0
   56.4020   83.2280   25.7370 C   0  0  0  0  0  0  0  0  0  0  0  0
   56.4920   82.9550   27.2260 C   0  0  0  0  0  0  0  0  0  0  0  0
   55.0370   82.7700   27.6450 C   0  0  0  0  0  0  0  0  0  0  0  0
   53.0740   83.0430   26.1010 C   0  0  0  0  0  0  0  0  0  0  0  0
   52.1810   82.4620   25.1180 N   0  0  0  0  0  0  0  0  0  0  0  0
   51.8100   81.1420   25.1930 C   0  0  0  0  0  0  0  0  0  0  0  0
   50.8180   80.7380   24.5990 O   0  0  0  0  0  0  0  0  0  0  0  0
   58.8950   80.3280   28.9830 N   0  0  0  0  0  0  0  0  0  0  0  0
   59.6240   81.2980   29.5990 C   0  0  0  0  0  0  0  0  0  0  0  0
   60.6930   82.3570   32.9590 C   0  0  0  0  0  0  0  0  0  0  0  0
   61.3070   83.6090   33.6820 C   0  0  0  0  0  0  0  0  0  0  0  0
   60.1770   84.6440   33.9360 C   0  0  0  0  0  0  0  0  0  0  0  0
   61.7830   83.1690   35.0870 C   0  0  0  0  0  0  0  0  0  0  0  0
   64.6721   81.4912   32.1236 H   0  0  0  0  0  0  0  0  0  0  0  0
   63.7667   81.6056   30.5765 H   0  0  0  0  0  0  0  0  0  0  0  0
   65.4805   81.0675   30.5765 H   0  0  0  0  0  0  0  0  0  0  0  0
   65.5188   84.5863   32.4665 H   0  0  0  0  0  0  0  0  0  0  0  0
   64.1620   84.9791   31.3388 H   0  0  0  0  0  0  0  0  0  0  0  0
   63.4805   82.5042   32.5244 H   0  0  0  0  0  0  0  0  0  0  0  0
   64.1178   83.5493   33.8616 H   0  0  0  0  0  0  0  0  0  0  0  0
   61.1321   85.2930   31.5503 H   0  0  0  0  0  0  0  0  0  0  0  0
   62.8075   84.8600   30.9330 H   0  0  0  0  0  0  0  0  0  0  0  0
   60.9640   83.6026   29.7981 H   0  0  0  0  0  0  0  0  0  0  0  0
   62.1810   82.5665   30.6391 H   0  0  0  0  0  0  0  0  0  0  0  0
   58.4234   81.1719   32.7294 H   0  0  0  0  0  0  0  0  0  0  0  0
   57.0643   79.3872   31.6492 H   0  0  0  0  0  0  0  0  0  0  0  0
   57.7760   77.8020   28.9870 H   0  0  0  0  0  0  0  0  0  0  0  0
   53.5962   76.5204   27.6129 H   0  0  0  0  0  0  0  0  0  0  0  0
   51.7192   78.3224   26.0458 H   0  0  0  0  0  0  0  0  0  0  0  0
   55.8022   81.2487   25.0864 H   0  0  0  0  0  0  0  0  0  0  0  0
   54.8901   82.5477   24.3126 H   0  0  0  0  0  0  0  0  0  0  0  0
   57.3679   83.0445   25.2437 H   0  0  0  0  0  0  0  0  0  0  0  0
   56.1446   84.2721   25.5056 H   0  0  0  0  0  0  0  0  0  0  0  0
   57.0765   82.0444   27.4238 H   0  0  0  0  0  0  0  0  0  0  0  0
   56.9969   83.7610   27.7787 H   0  0  0  0  0  0  0  0  0  0  0  0
   54.9700   82.0857   28.5036 H   0  0  0  0  0  0  0  0  0  0  0  0
   54.5807   83.7225   27.9525 H   0  0  0  0  0  0  0  0  0  0  0  0
   52.5124   83.1945   27.0347 H   0  0  0  0  0  0  0  0  0  0  0  0
   53.4471   83.9881   25.6796 H   0  0  0  0  0  0  0  0  0  0  0  0
   51.4890   83.0440   24.6610 H   0  0  0  0  0  0  0  0  0  0  0  0
   60.3454   81.8512   28.9796 H   0  0  0  0  0  0  0  0  0  0  0  0
   59.8055   82.0242   33.5173 H   0  0  0  0  0  0  0  0  0  0  0  0
   61.4619   81.5709   32.9289 H   0  0  0  0  0  0  0  0  0  0  0  0
   60.0353   84.7738   35.0191 H   0  0  0  0  0  0  0  0  0  0  0  0
   60.4543   85.6079   33.4844 H   0  0  0  0  0  0  0  0  0  0  0  0
   59.2411   84.2833   33.4844 H   0  0  0  0  0  0  0  0  0  0  0  0
   61.2043   83.7040   35.8544 H   0  0  0  0  0  0  0  0  0  0  0  0
   61.6319   82.0856   35.2027 H   0  0  0  0  0  0  0  0  0  0  0  0
   62.8512   83.4047   35.2027 H   0  0  0  0  0  0  0  0  0  0  0  0
  1  2  1  0
  2  3  2  0
  2  4  1  0
  4  5  1  0
  5  6  1  0
  6  7  1  0
  7  8  1  0
  8  9  1  0
  9 10  1  0
 10 11  2  0
 11 12  1  0
 12 13  2  0
 13 14  1  0
 14 15  1  0
 15 16  2  0
 16 17  1  0
 17 18  2  0
 18 19  1  0
 19 20  2  0
 20 21  1  0
 21 22  1  0
 22 23  2  0
 21 24  1  0
 24 25  1  0
 25 26  1  0
 26 27  1  0
 27 28  1  0
 24 29  1  0
 29 30  1  0
 30 31  1  0
 31 32  2  0
 13 33  1  0
 33 34  2  0
  9 35  1  0
 35 36  1  0
 36 37  1  0
 36 38  1  0
 36  6  1  0
 34 10  1  0
 23 15  1  0
 28 24  1  0
 22 18  1  0
 31 20  1  0
  1 39  1  0
  1 40  1  0
  1 41  1  0
  4 42  1  0
  4 43  1  0
  5 44  1  0
  5 45  1  0
  7 46  1  0
  7 47  1  0
  8 48  1  0
  8 49  1  0
 11 50  1  0
 12 51  1  0
 14 52  1  0
 17 53  1  0
 19 54  1  0
 25 55  1  0
 25 56  1  0
 26 57  1  0
 26 58  1  0
 27 59  1  0
 27 60  1  0
 28 61  1  0
 28 62  1  0
 29 63  1  0
 29 64  1  0
 30 65  1  0
 34 66  1  0
 35 67  1  0
 35 68  1  0
 37 69  1  0
 37 70  1  0
 37 71  1  0
 38 72  1  0
 38 73  1  0
 38 74  1  0
M  END
>  <meeko>  (1) 
{"is_sidechain": false}

>  <smiles>  (1) 
CC(=O)CCN1CCN(c2ccc(Nc3ncc4cc5n(c4n3)C3(CCCC3)CNC5=O)nc2)CC1(C)C

>  <vina_score>  (1) 
-7.323

>  <job_id>  (1) 
9e5807716c7d09c2

$$$$
