
     RDKit          3D

 46 48  0  0  0  0  0  0  0  0999 V2000
   50.7090   85.1340   20.7610 C   0  0  0  0  0  0  0  0  0  0  0  0
   50.6860   83.7340   20.5180 O   0  0  0  0  0  0  0  0  0  0  0  0
   51.1470   82.9240   21.5180 C   0  0  0  0  0  0  0  0  0  0  0  0
   50.8340   81.5760   21.6940 C   0  0  0  0  0  0  0  0  0  0  0  0
   51.3800   80.8610   22.7670 C   0  0  0  0  0  0  0  0  0  0  0  0
   52.2430   81.4780   23.6860 C   0  0  0  0  0  0  0  0  0  0  0  0
   52.8180   80.7220   24.8080 C   0  0  0  0  0  0  0  0  0  0  0  0
   53.0930   79.3510   24.6370 C   0  0  0  0  0  0  0  0  0  0  0  0
   53.6880   78.5990   25.6530 C   0  0  0  0  0  0  0  0  0  0  0  0
   54.0150   79.2080   26.8670 C   0  0  0  0  0  0  0  0  0  0  0  0
   54.6780   78.4400   27.9450 C   0  0  0  0  0  0  0  0  0  0  0  0
   54.1220   77.4170   28.3380 O   0  0  0  0  0  0  0  0  0  0  0  0
   55.8840   78.9080   28.4640 N   0  0  0  0  0  0  0  0  0  0  0  0
   56.4510   78.1940   29.6060 C   0  0  0  0  0  0  0  0  0  0  0  0
   57.4350   79.0600   30.3810 C   0  0  0  0  0  0  0  0  0  0  0  0
   58.5850   79.5500   29.5010 C   0  0  0  0  0  0  0  0  0  0  0  0
   58.2150   79.6260   28.0200 C   0  0  0  0  0  0  0  0  0  0  0  0
   56.7320   79.9120   27.8120 C   0  0  0  0  0  0  0  0  0  0  0  0
   53.7770   80.5690   27.0590 C   0  0  0  0  0  0  0  0  0  0  0  0
   53.1590   81.3130   26.0440 C   0  0  0  0  0  0  0  0  0  0  0  0
   52.8990   82.7340   26.3370 C   0  0  0  0  0  0  0  0  0  0  0  0
   51.8100   83.2320   26.5430 O   0  0  0  0  0  0  0  0  0  0  0  0
   54.0240   83.4640   26.2590 O   0  0  0  0  0  0  0  0  0  0  0  0
   52.5520   82.8330   23.4960 C   0  0  0  0  0  0  0  0  0  0  0  0
   52.0070   83.5450   22.4240 C   0  0  0  0  0  0  0  0  0  0  0  0
   50.7120   85.3179   21.8455 H   0  0  0  0  0  0  0  0  0  0  0  0
   51.6144   85.5691   20.3128 H   0  0  0  0  0  0  0  0  0  0  0  0
   49.8184   85.5986   20.3128 H   0  0  0  0  0  0  0  0  0  0  0  0
   50.1565   81.0734   20.9880 H   0  0  0  0  0  0  0  0  0  0  0  0
   51.1283   79.7975   22.8918 H   0  0  0  0  0  0  0  0  0  0  0  0
   52.8344   78.8633   23.6855 H   0  0  0  0  0  0  0  0  0  0  0  0
   53.8984   77.5306   25.4975 H   0  0  0  0  0  0  0  0  0  0  0  0
   55.6346   77.8929   30.2790 H   0  0  0  0  0  0  0  0  0  0  0  0
   56.9934   77.3158   29.2258 H   0  0  0  0  0  0  0  0  0  0  0  0
   56.8994   79.9325   30.7834 H   0  0  0  0  0  0  0  0  0  0  0  0
   57.8629   78.4477   31.1885 H   0  0  0  0  0  0  0  0  0  0  0  0
   58.8823   80.5535   29.8397 H   0  0  0  0  0  0  0  0  0  0  0  0
   59.4052   78.8234   29.5978 H   0  0  0  0  0  0  0  0  0  0  0  0
   58.8004   80.4295   27.5492 H   0  0  0  0  0  0  0  0  0  0  0  0
   58.4382   78.6496   27.5651 H   0  0  0  0  0  0  0  0  0  0  0  0
   56.4984   80.9015   28.2320 H   0  0  0  0  0  0  0  0  0  0  0  0
   56.5273   79.8811   26.7316 H   0  0  0  0  0  0  0  0  0  0  0  0
   54.0722   81.0553   28.0005 H   0  0  0  0  0  0  0  0  0  0  0  0
   54.6210   82.9280   25.6970 H   0  0  0  0  0  0  0  0  0  0  0  0
   53.2302   83.3403   24.1979 H   0  0  0  0  0  0  0  0  0  0  0  0
   52.2592   84.6077   22.2931 H   0  0  0  0  0  0  0  0  0  0  0  0
  1  2  1  0
  2  3  1  0
  3  4  1  0
  4  5  2  0
  5  6  1  0
  6  7  1  0
  7  8  1  0
  8  9  2  0
  9 10  1  0
 10 11  1  0
 11 12  2  0
 11 13  1  0
 13 14  1  0
 14 15  1  0
 15 16  1  0
 16 17  1  0
 17 18  1  0
 10 19  2  0
 19 20  1  0
 20 21  1  0
 21 22  2  0
 21 23  1  0
  6 24  2  0
 24 25  1  0
 25  3  2  0
 20  7  2  0
 18 13  1  0
  1 26  1  0
  1 27  1  0
  1 28  1  0
  4 29  1  0
  5 30  1  0
  8 31  1  0
  9 32  1  0
 14 33  1  0
 14 34  1  0
 15 35  1  0
 15 36  1  0
 16 37  1  0
 16 38  1  0
 17 39  1  0
 17 40  1  0
 18 41  1  0
 18 42  1  0
 19 43  1  0
 23 44  1  0
 24 45  1  0
 25 46  1  0
M  END
>  <meeko>  (1) 
{"is_sidechain": false}

>  <smiles>  (1) 
COc1ccc(-c2ccc(C(=O)N3CCCCC3)cc2C(=O)O)cc1

>  <vina_score>  (1) 
-7.360

>  <job_id>  (1) 
9e5c67eeb62bb32b

$$$$
