
     RDKit          3D

 41 44  0  0  0  0  0  0  0  0999 V2000
   58.3010   79.1110   27.6460 O   0  0  0  0  0  0  0  0  0  0  0  0
   58.2590   79.4350   28.8350 C   0  0  0  0  0  0  0  0  0  0  0  0
   59.3460   80.3100   29.4450 C   0  0  0  0  0  0  0  0  0  0  0  0
   58.8780   81.2670   30.5150 C   0  0  0  0  0  0  0  0  0  0  0  0
   58.7710   82.6380   30.2410 C   0  0  0  0  0  0  0  0  0  0  0  0
   58.3800   83.5290   31.2410 C   0  0  0  0  0  0  0  0  0  0  0  0
   58.0900   83.0590   32.5200 C   0  0  0  0  0  0  0  0  0  0  0  0
   58.1850   81.6980   32.8010 C   0  0  0  0  0  0  0  0  0  0  0  0
   58.5770   80.8030   31.8030 C   0  0  0  0  0  0  0  0  0  0  0  0
   57.2150   79.1070   29.6820 N   0  0  0  0  0  0  0  0  0  0  0  0
   56.1440   78.3390   29.2640 C   0  0  0  0  0  0  0  0  0  0  0  0
   55.8880   77.0650   29.7070 N   0  0  0  0  0  0  0  0  0  0  0  0
   54.7860   76.4950   29.1780 N   0  0  0  0  0  0  0  0  0  0  0  0
   54.2880   77.4300   28.3520 C   0  0  0  0  0  0  0  0  0  0  0  0
   53.1440   77.3950   27.5430 C   0  0  0  0  0  0  0  0  0  0  0  0
   52.9350   78.5810   26.7960 C   0  0  0  0  0  0  0  0  0  0  0  0
   53.7990   79.7350   26.8220 C   0  0  0  0  0  0  0  0  0  0  0  0
   53.4910   80.8610   26.0000 N   0  0  0  0  0  0  0  0  0  0  0  0
   53.3370   80.9450   24.6240 C   0  0  0  0  0  0  0  0  0  0  0  0
   53.6850   79.9540   23.7620 O   0  0  0  0  0  0  0  0  0  0  0  0
   52.9350   82.1710   24.2700 C   0  0  0  0  0  0  0  0  0  0  0  0
   52.8230   82.9310   25.3980 N   0  0  0  0  0  0  0  0  0  0  0  0
   53.1720   82.1640   26.5260 C   0  0  0  0  0  0  0  0  0  0  0  0
   53.1630   82.5810   27.6710 O   0  0  0  0  0  0  0  0  0  0  0  0
   54.9420   79.7790   27.6570 C   0  0  0  0  0  0  0  0  0  0  0  0
   55.1280   78.6020   28.3840 C   0  0  0  0  0  0  0  0  0  0  0  0
   60.1054   79.6492   29.8884 H   0  0  0  0  0  0  0  0  0  0  0  0
   59.7303   80.9343   28.6249 H   0  0  0  0  0  0  0  0  0  0  0  0
   58.9966   83.0132   29.2319 H   0  0  0  0  0  0  0  0  0  0  0  0
   58.3007   84.6035   31.0193 H   0  0  0  0  0  0  0  0  0  0  0  0
   57.7858   83.7631   33.3085 H   0  0  0  0  0  0  0  0  0  0  0  0
   57.9510   81.3277   33.8100 H   0  0  0  0  0  0  0  0  0  0  0  0
   58.6499   79.7289   32.0288 H   0  0  0  0  0  0  0  0  0  0  0  0
   57.2550   79.3730   30.6610 H   0  0  0  0  0  0  0  0  0  0  0  0
   56.4440   76.5440   30.3820 H   0  0  0  0  0  0  0  0  0  0  0  0
   52.4704   76.5268   27.4925 H   0  0  0  0  0  0  0  0  0  0  0  0
   52.0473   78.6244   26.1479 H   0  0  0  0  0  0  0  0  0  0  0  0
   52.8690   79.4540   23.5880 H   0  0  0  0  0  0  0  0  0  0  0  0
   52.7296   82.5091   23.2436 H   0  0  0  0  0  0  0  0  0  0  0  0
   52.5490   83.9000   25.4560 H   0  0  0  0  0  0  0  0  0  0  0  0
   55.6122   80.6486   27.7254 H   0  0  0  0  0  0  0  0  0  0  0  0
  1  2  2  0
  2  3  1  0
  3  4  1  0
  4  5  2  0
  5  6  1  0
  6  7  2  0
  7  8  1  0
  8  9  2  0
  2 10  1  0
 10 11  1  0
 11 12  1  0
 12 13  1  0
 13 14  2  0
 14 15  1  0
 15 16  2  0
 16 17  1  0
 17 18  1  0
 18 19  1  0
 19 20  1  0
 19 21  2  0
 21 22  1  0
 22 23  1  0
 23 24  2  0
 17 25  2  0
 25 26  1  0
  9  4  1  0
 26 11  2  0
 26 14  1  0
 23 18  1  0
  3 27  1  0
  3 28  1  0
  5 29  1  0
  6 30  1  0
  7 31  1  0
  8 32  1  0
  9 33  1  0
 10 34  1  0
 12 35  1  0
 15 36  1  0
 16 37  1  0
 20 38  1  0
 21 39  1  0
 22 40  1  0
 25 41  1  0
M  END
>  <meeko>  (1) 
{"is_sidechain": false}

>  <smiles>  (1) 
O=C(Cc1ccccc1)Nc1[nH]nc2ccc(-n3c(O)c[nH]c3=O)cc12

>  <vina_score>  (1) 
-9.610

>  <job_id>  (1) 
9e7d66fb9e92b4e7

$$$$
