
     RDKit          3D

 77 79  0  0  0  0  0  0  0  0999 V2000
   52.6160   76.7570   27.6590 C   0  0  0  0  0  0  0  0  0  0  0  0
   53.1300   77.9830   28.4000 C   0  0  0  0  0  0  0  0  0  0  0  0
   54.2740   78.6240   27.7430 N   0  0  0  0  0  0  0  0  0  0  0  0
   55.5680   77.9370   27.8200 C   0  0  0  0  0  0  0  0  0  0  0  0
   56.6470   78.7250   28.5110 C   0  0  0  0  0  0  0  0  0  0  0  0
   56.8050   78.7540   29.8970 C   0  0  0  0  0  0  0  0  0  0  0  0
   57.8530   79.4820   30.4620 C   0  0  0  0  0  0  0  0  0  0  0  0
   58.7410   80.1580   29.6310 C   0  0  0  0  0  0  0  0  0  0  0  0
   59.7710   80.8830   30.2490 N   0  0  0  0  0  0  0  0  0  0  0  0
   59.6120   81.9750   31.0600 C   0  0  0  0  0  0  0  0  0  0  0  0
   58.5350   82.5100   31.3090 O   0  0  0  0  0  0  0  0  0  0  0  0
   60.7810   82.4800   31.6170 N   0  0  0  0  0  0  0  0  0  0  0  0
   61.7290   83.1310   30.6450 C   0  0  0  0  0  0  0  0  0  0  0  0
   62.7960   83.5820   31.5420 C   0  0  0  0  0  0  0  0  0  0  0  0
   64.0230   84.2470   31.5790 C   0  0  0  0  0  0  0  0  0  0  0  0
   64.7900   84.8070   30.5900 N   0  0  0  0  0  0  0  0  0  0  0  0
   64.4800   85.9280   29.8550 C   0  0  0  0  0  0  0  0  0  0  0  0
   63.4500   86.5850   29.9900 O   0  0  0  0  0  0  0  0  0  0  0  0
   65.5530   86.3130   28.8120 C   0  0  0  0  0  0  0  0  0  0  0  0
   66.4350   85.0970   28.4920 C   0  0  0  0  0  0  0  0  0  0  0  0
   64.8800   86.8300   27.5310 C   0  0  0  0  0  0  0  0  0  0  0  0
   66.4450   87.4300   29.3820 C   0  0  0  0  0  0  0  0  0  0  0  0
   64.4820   84.3190   32.8440 N   0  0  0  0  0  0  0  0  0  0  0  0
   63.5400   83.6990   33.5920 N   0  0  0  0  0  0  0  0  0  0  0  0
   62.5230   83.2500   32.8320 C   0  0  0  0  0  0  0  0  0  0  0  0
   61.2550   82.5220   33.0540 C   0  0  0  0  0  0  0  0  0  0  0  0
   61.5490   81.1280   33.6170 C   0  0  0  0  0  0  0  0  0  0  0  0
   60.3310   83.3450   33.9570 C   0  0  0  0  0  0  0  0  0  0  0  0
   58.6100   80.1300   28.2960 N   0  0  0  0  0  0  0  0  0  0  0  0
   57.5870   79.4240   27.7650 C   0  0  0  0  0  0  0  0  0  0  0  0
   54.0490   79.8250   27.0710 C   0  0  0  0  0  0  0  0  0  0  0  0
   53.5610   80.8010   27.6410 O   0  0  0  0  0  0  0  0  0  0  0  0
   54.4460   79.8870   25.6030 C   0  0  0  0  0  0  0  0  0  0  0  0
   53.2400   80.1920   24.7060 C   0  0  0  0  0  0  0  0  0  0  0  0
   53.3100   81.4320   23.9110 N   0  0  0  0  0  0  0  0  0  0  0  0
   52.5700   81.3460   22.6570 C   0  0  0  0  0  0  0  0  0  0  0  0
   52.9360   82.6220   24.6680 C   0  0  0  0  0  0  0  0  0  0  0  0
   52.2969   75.9960   28.3864 H   0  0  0  0  0  0  0  0  0  0  0  0
   51.7615   77.0417   27.0275 H   0  0  0  0  0  0  0  0  0  0  0  0
   53.4181   76.3472   27.0275 H   0  0  0  0  0  0  0  0  0  0  0  0
   52.3128   78.7159   28.4703 H   0  0  0  0  0  0  0  0  0  0  0  0
   53.4716   77.6447   29.3894 H   0  0  0  0  0  0  0  0  0  0  0  0
   55.4253   76.9940   28.3682 H   0  0  0  0  0  0  0  0  0  0  0  0
   55.9048   77.7826   26.7843 H   0  0  0  0  0  0  0  0  0  0  0  0
   56.1049   78.2041   30.5431 H   0  0  0  0  0  0  0  0  0  0  0  0
   57.9759   79.5211   31.5544 H   0  0  0  0  0  0  0  0  0  0  0  0
   60.6990   80.5950   30.0260 H   0  0  0  0  0  0  0  0  0  0  0  0
   62.1040   82.4097   29.9040 H   0  0  0  0  0  0  0  0  0  0  0  0
   61.2767   83.9337   30.0440 H   0  0  0  0  0  0  0  0  0  0  0  0
   65.6470   84.3010   30.4340 H   0  0  0  0  0  0  0  0  0  0  0  0
   66.7724   84.6318   29.4299 H   0  0  0  0  0  0  0  0  0  0  0  0
   65.8551   84.3668   27.9084 H   0  0  0  0  0  0  0  0  0  0  0  0
   67.3092   85.4215   27.9084 H   0  0  0  0  0  0  0  0  0  0  0  0
   64.0338   87.4801   27.7981 H   0  0  0  0  0  0  0  0  0  0  0  0
   65.6094   87.4023   26.9389 H   0  0  0  0  0  0  0  0  0  0  0  0
   64.5151   85.9778   26.9389 H   0  0  0  0  0  0  0  0  0  0  0  0
   66.4178   87.3960   30.4811 H   0  0  0  0  0  0  0  0  0  0  0  0
   67.4792   87.2858   29.0361 H   0  0  0  0  0  0  0  0  0  0  0  0
   66.0756   88.4067   29.0361 H   0  0  0  0  0  0  0  0  0  0  0  0
   63.6820   83.6350   34.5960 H   0  0  0  0  0  0  0  0  0  0  0  0
   61.5407   81.1673   34.7163 H   0  0  0  0  0  0  0  0  0  0  0  0
   60.7799   80.4225   33.2695 H   0  0  0  0  0  0  0  0  0  0  0  0
   62.5375   80.7932   33.2695 H   0  0  0  0  0  0  0  0  0  0  0  0
   60.5664   83.1354   35.0109 H   0  0  0  0  0  0  0  0  0  0  0  0
   60.4789   84.4160   33.7543 H   0  0  0  0  0  0  0  0  0  0  0  0
   59.2842   83.0746   33.7543 H   0  0  0  0  0  0  0  0  0  0  0  0
   57.4927   79.4016   26.6693 H   0  0  0  0  0  0  0  0  0  0  0  0
   55.1993   80.6774   25.4697 H   0  0  0  0  0  0  0  0  0  0  0  0
   54.8514   78.9062   25.3138 H   0  0  0  0  0  0  0  0  0  0  0  0
   53.1230   79.3518   24.0057 H   0  0  0  0  0  0  0  0  0  0  0  0
   52.3933   80.3337   25.3937 H   0  0  0  0  0  0  0  0  0  0  0  0
   51.4983   81.2215   22.8715 H   0  0  0  0  0  0  0  0  0  0  0  0
   52.7231   82.2680   22.0769 H   0  0  0  0  0  0  0  0  0  0  0  0
   52.9305   80.4837   22.0769 H   0  0  0  0  0  0  0  0  0  0  0  0
   53.0033   82.4077   25.7448 H   0  0  0  0  0  0  0  0  0  0  0  0
   53.6182   83.4470   24.4149 H   0  0  0  0  0  0  0  0  0  0  0  0
   51.9045   82.9084   24.4149 H   0  0  0  0  0  0  0  0  0  0  0  0
  1  2  1  0
  2  3  1  0
  3  4  1  0
  4  5  1  0
  5  6  2  0
  6  7  1  0
  7  8  2  0
  8  9  1  0
  9 10  1  0
 10 11  2  0
 10 12  1  0
 12 13  1  0
 13 14  1  0
 14 15  1  0
 15 16  1  0
 16 17  1  0
 17 18  2  0
 17 19  1  0
 19 20  1  0
 19 21  1  0
 19 22  1  0
 15 23  2  0
 23 24  1  0
 24 25  1  0
 25 26  1  0
 26 27  1  0
 26 28  1  0
  8 29  1  0
 29 30  2  0
  3 31  1  0
 31 32  2  0
 31 33  1  0
 33 34  1  0
 34 35  1  0
 35 36  1  0
 35 37  1  0
 30  5  1  0
 26 12  1  0
 25 14  2  0
  1 38  1  0
  1 39  1  0
  1 40  1  0
  2 41  1  0
  2 42  1  0
  4 43  1  0
  4 44  1  0
  6 45  1  0
  7 46  1  0
  9 47  1  0
 13 48  1  0
 13 49  1  0
 16 50  1  0
 20 51  1  0
 20 52  1  0
 20 53  1  0
 21 54  1  0
 21 55  1  0
 21 56  1  0
 22 57  1  0
 22 58  1  0
 22 59  1  0
 24 60  1  0
 27 61  1  0
 27 62  1  0
 27 63  1  0
 28 64  1  0
 28 65  1  0
 28 66  1  0
 30 67  1  0
 33 68  1  0
 33 69  1  0
 34 70  1  0
 34 71  1  0
 36 72  1  0
 36 73  1  0
 36 74  1  0
 37 75  1  0
 37 76  1  0
 37 77  1  0
M  END
>  <meeko>  (1) 
{"is_sidechain": false}

>  <smiles>  (1) 
CCN(Cc1ccc(NC(=O)N2Cc3c(NC(=O)C(C)(C)C)n[nH]c3C2(C)C)nc1)C(=O)CCN(C)C

>  <vina_score>  (1) 
-7.242

>  <job_id>  (1) 
9e99d523363cc551

$$$$
