
     RDKit          3D

 32 34  0  0  0  0  0  0  0  0999 V2000
   58.1910   78.3300   28.0690 O   0  0  0  0  0  0  0  0  0  0  0  0
   57.7770   79.4520   28.3140 C   0  0  0  0  0  0  0  0  0  0  0  0
   56.5000   79.9310   28.1680 N   0  0  0  0  0  0  0  0  0  0  0  0
   55.4200   79.2140   27.7280 C   0  0  0  0  0  0  0  0  0  0  0  0
   54.6350   78.2590   28.4150 C   0  0  0  0  0  0  0  0  0  0  0  0
   53.6880   77.8650   27.5030 C   0  0  0  0  0  0  0  0  0  0  0  0
   52.5750   76.8170   27.7120 C   0  0  0  0  0  0  0  0  0  0  0  0
   52.1850   75.9310   26.5610 C   0  0  0  0  0  0  0  0  0  0  0  0
   52.9420   75.3570   27.7210 C   0  0  0  0  0  0  0  0  0  0  0  0
   53.9450   78.5600   26.3620 N   0  0  0  0  0  0  0  0  0  0  0  0
   54.9910   79.3960   26.4760 N   0  0  0  0  0  0  0  0  0  0  0  0
   58.7220   80.5350   28.8390 C   0  0  0  0  0  0  0  0  0  0  0  0
   59.6170   80.9190   28.0890 O   0  0  0  0  0  0  0  0  0  0  0  0
   58.5530   81.1320   30.1890 C   0  0  0  0  0  0  0  0  0  0  0  0
   58.3550   80.3600   31.3400 C   0  0  0  0  0  0  0  0  0  0  0  0
   58.1850   80.9820   32.5810 C   0  0  0  0  0  0  0  0  0  0  0  0
   58.2040   82.3720   32.6780 C   0  0  0  0  0  0  0  0  0  0  0  0
   58.3890   83.1480   31.5360 C   0  0  0  0  0  0  0  0  0  0  0  0
   58.5600   82.5300   30.2950 C   0  0  0  0  0  0  0  0  0  0  0  0
   56.3230   80.9130   28.3490 H   0  0  0  0  0  0  0  0  0  0  0  0
   54.7565   77.9094   29.4509 H   0  0  0  0  0  0  0  0  0  0  0  0
   52.0357   77.4892   28.3957 H   0  0  0  0  0  0  0  0  0  0  0  0
   51.1293   75.6630   26.4070 H   0  0  0  0  0  0  0  0  0  0  0  0
   52.3372   75.9601   25.4720 H   0  0  0  0  0  0  0  0  0  0  0  0
   52.4414   74.6685   28.4177 H   0  0  0  0  0  0  0  0  0  0  0  0
   53.8786   74.7915   27.8348 H   0  0  0  0  0  0  0  0  0  0  0  0
   53.4500   78.5170   25.4780 H   0  0  0  0  0  0  0  0  0  0  0  0
   58.3331   79.2626   31.2682 H   0  0  0  0  0  0  0  0  0  0  0  0
   58.0357   80.3717   33.4839 H   0  0  0  0  0  0  0  0  0  0  0  0
   58.0729   82.8567   33.6567 H   0  0  0  0  0  0  0  0  0  0  0  0
   58.4004   84.2454   31.6113 H   0  0  0  0  0  0  0  0  0  0  0  0
   58.7012   83.1449   29.3939 H   0  0  0  0  0  0  0  0  0  0  0  0
  1  2  2  0
  2  3  1  0
  3  4  1  0
  4  5  1  0
  5  6  2  0
  6  7  1  0
  7  8  1  0
  8  9  1  0
  6 10  1  0
 10 11  1  0
  2 12  1  0
 12 13  2  0
 12 14  1  0
 14 15  2  0
 15 16  1  0
 16 17  2  0
 17 18  1  0
 18 19  2  0
 11  4  2  0
 19 14  1  0
  9  7  1  0
  3 20  1  0
  5 21  1  0
  7 22  1  0
  8 23  1  0
  8 24  1  0
  9 25  1  0
  9 26  1  0
 10 27  1  0
 15 28  1  0
 16 29  1  0
 17 30  1  0
 18 31  1  0
 19 32  1  0
M  END
>  <meeko>  (1) 
{"is_sidechain": false}

>  <smiles>  (1) 
O=C(Nc1cc(C2CC2)[nH]n1)C(=O)c1ccccc1

>  <vina_score>  (1) 
-7.190

>  <job_id>  (1) 
9eb21dfe3c26e7b6

$$$$
