
     RDKit          3D

 53 55  0  0  0  0  0  0  0  0999 V2000
   54.0600   84.2650   26.0570 C   0  0  0  0  0  0  0  0  0  0  0  0
   52.9450   83.2310   26.1090 C   0  0  0  0  0  0  0  0  0  0  0  0
   53.3110   81.9700   26.8990 C   0  0  0  0  0  0  0  0  0  0  0  0
   54.2920   81.0050   26.1970 C   0  0  0  0  0  0  0  0  0  0  0  0
   53.9570   80.7790   24.7160 C   0  0  0  0  0  0  0  0  0  0  0  0
   54.3980   79.7240   26.9440 N   0  0  0  0  0  0  0  0  0  0  0  0
   53.3570   78.8070   26.9120 C   0  0  0  0  0  0  0  0  0  0  0  0
   52.3120   78.9890   26.2880 O   0  0  0  0  0  0  0  0  0  0  0  0
   53.5160   77.5360   27.6800 C   0  0  0  0  0  0  0  0  0  0  0  0
   52.4210   76.5210   27.6010 C   0  0  0  0  0  0  0  0  0  0  0  0
   52.4990   75.4740   26.5200 C   0  0  0  0  0  0  0  0  0  0  0  0
   51.4810   76.5520   28.3950 O   0  0  0  0  0  0  0  0  0  0  0  0
   54.6100   77.2940   28.4330 C   0  0  0  0  0  0  0  0  0  0  0  0
   54.8070   76.0680   29.2910 C   0  0  0  0  0  0  0  0  0  0  0  0
   55.6800   78.3080   28.4340 C   0  0  0  0  0  0  0  0  0  0  0  0
   56.8700   78.1830   29.1250 C   0  0  0  0  0  0  0  0  0  0  0  0
   57.8480   79.1090   29.1450 N   0  0  0  0  0  0  0  0  0  0  0  0
   57.6480   80.2240   28.4390 C   0  0  0  0  0  0  0  0  0  0  0  0
   58.5850   81.2390   28.3950 N   0  0  0  0  0  0  0  0  0  0  0  0
   59.2700   81.9750   29.3420 C   0  0  0  0  0  0  0  0  0  0  0  0
   60.5840   81.7320   29.7280 C   0  0  0  0  0  0  0  0  0  0  0  0
   61.1860   82.5380   30.6990 C   0  0  0  0  0  0  0  0  0  0  0  0
   60.4610   83.5790   31.2690 C   0  0  0  0  0  0  0  0  0  0  0  0
   61.0860   84.4350   32.2920 C   0  0  0  0  0  0  0  0  0  0  0  0
   60.7810   85.5890   32.5350 O   0  0  0  0  0  0  0  0  0  0  0  0
   62.0650   83.8120   32.9680 O   0  0  0  0  0  0  0  0  0  0  0  0
   59.1600   83.7620   30.8360 C   0  0  0  0  0  0  0  0  0  0  0  0
   58.5600   82.9870   29.8940 N   0  0  0  0  0  0  0  0  0  0  0  0
   56.5350   80.4340   27.7270 N   0  0  0  0  0  0  0  0  0  0  0  0
   55.5700   79.4870   27.7190 C   0  0  0  0  0  0  0  0  0  0  0  0
   54.3547   84.5383   27.0810 H   0  0  0  0  0  0  0  0  0  0  0  0
   54.9264   83.8436   25.5262 H   0  0  0  0  0  0  0  0  0  0  0  0
   53.7050   85.1607   25.5262 H   0  0  0  0  0  0  0  0  0  0  0  0
   52.0648   83.6928   26.5802 H   0  0  0  0  0  0  0  0  0  0  0  0
   52.7498   82.9162   25.0732 H   0  0  0  0  0  0  0  0  0  0  0  0
   53.7680   82.2859   27.8484 H   0  0  0  0  0  0  0  0  0  0  0  0
   52.3729   81.4089   27.0225 H   0  0  0  0  0  0  0  0  0  0  0  0
   55.2792   81.4900   26.2069 H   0  0  0  0  0  0  0  0  0  0  0  0
   53.0476   80.1655   24.6353 H   0  0  0  0  0  0  0  0  0  0  0  0
   53.7894   81.7493   24.2258 H   0  0  0  0  0  0  0  0  0  0  0  0
   54.7940   80.2602   24.2258 H   0  0  0  0  0  0  0  0  0  0  0  0
   52.5732   74.4773   26.9795 H   0  0  0  0  0  0  0  0  0  0  0  0
   51.5947   75.5235   25.8957 H   0  0  0  0  0  0  0  0  0  0  0  0
   53.3860   75.6569   25.8957 H   0  0  0  0  0  0  0  0  0  0  0  0
   54.7613   76.3523   30.3527 H   0  0  0  0  0  0  0  0  0  0  0  0
   54.0149   75.3366   29.0728 H   0  0  0  0  0  0  0  0  0  0  0  0
   55.7884   75.6216   29.0728 H   0  0  0  0  0  0  0  0  0  0  0  0
   57.0304   77.2597   29.7009 H   0  0  0  0  0  0  0  0  0  0  0  0
   58.8240   81.5040   27.4520 H   0  0  0  0  0  0  0  0  0  0  0  0
   61.1489   80.9067   29.2699 H   0  0  0  0  0  0  0  0  0  0  0  0
   62.2244   82.3503   31.0095 H   0  0  0  0  0  0  0  0  0  0  0  0
   61.7290   82.8980   33.0890 H   0  0  0  0  0  0  0  0  0  0  0  0
   58.5770   84.5825   31.2798 H   0  0  0  0  0  0  0  0  0  0  0  0
  1  2  1  0
  2  3  1  0
  3  4  1  0
  4  5  1  0
  4  6  1  0
  6  7  1  0
  7  8  2  0
  7  9  1  0
  9 10  1  0
 10 11  1  0
 10 12  2  0
  9 13  2  0
 13 14  1  0
 13 15  1  0
 15 16  2  0
 16 17  1  0
 17 18  2  0
 18 19  1  0
 19 20  1  0
 20 21  2  0
 21 22  1  0
 22 23  2  0
 23 24  1  0
 24 25  2  0
 24 26  1  0
 23 27  1  0
 27 28  2  0
 18 29  1  0
 29 30  2  0
 30  6  1  0
 30 15  1  0
 28 20  1  0
  1 31  1  0
  1 32  1  0
  1 33  1  0
  2 34  1  0
  2 35  1  0
  3 36  1  0
  3 37  1  0
  4 38  1  0
  5 39  1  0
  5 40  1  0
  5 41  1  0
 11 42  1  0
 11 43  1  0
 11 44  1  0
 14 45  1  0
 14 46  1  0
 14 47  1  0
 16 48  1  0
 19 49  1  0
 21 50  1  0
 22 51  1  0
 26 52  1  0
 27 53  1  0
M  END
>  <meeko>  (1) 
{"is_sidechain": false}

>  <smiles>  (1) 
CCCC(C)n1c(=O)c(C(C)=O)c(C)c2cnc(Nc3ccc(C(=O)O)cn3)nc21

>  <vina_score>  (1) 
-8.158

>  <job_id>  (1) 
9ec74a4a27ff866d

$$$$
