
     RDKit          3D

 45 47  0  0  0  0  0  0  0  0999 V2000
   53.4930   79.7400   26.7580 C   0  0  0  0  0  0  0  0  0  0  0  0
   54.4730   78.9810   27.6030 C   0  0  0  0  0  0  0  0  0  0  0  0
   54.0600   77.8600   28.3310 C   0  0  0  0  0  0  0  0  0  0  0  0
   54.9600   77.1750   29.1450 C   0  0  0  0  0  0  0  0  0  0  0  0
   56.2820   77.6090   29.2450 C   0  0  0  0  0  0  0  0  0  0  0  0
   56.7200   78.7320   28.5290 C   0  0  0  0  0  0  0  0  0  0  0  0
   58.1450   79.2260   28.6600 C   0  0  0  0  0  0  0  0  0  0  0  0
   58.2690   80.4760   29.4270 N   0  0  0  0  0  0  0  0  0  0  0  0
   59.5650   81.1280   29.1450 C   0  0  0  0  0  0  0  0  0  0  0  0
   60.0380   82.0730   30.2610 C   0  0  0  0  0  0  0  0  0  0  0  0
   60.2030   81.3610   31.5290 N   0  0  0  0  0  0  0  0  0  0  0  0
   61.0030   81.9390   32.5070 C   0  0  0  0  0  0  0  0  0  0  0  0
   61.5330   83.0400   32.3840 O   0  0  0  0  0  0  0  0  0  0  0  0
   61.2400   81.1960   33.7650 C   0  0  0  0  0  0  0  0  0  0  0  0
   62.4550   80.5370   33.9880 C   0  0  0  0  0  0  0  0  0  0  0  0
   62.6650   79.8570   35.1910 C   0  0  0  0  0  0  0  0  0  0  0  0
   61.6630   79.8570   36.1600 C   0  0  0  0  0  0  0  0  0  0  0  0
   61.8260   79.2060   37.3470 O   0  0  0  0  0  0  0  0  0  0  0  0
   60.4620   80.5280   35.9510 C   0  0  0  0  0  0  0  0  0  0  0  0
   60.2500   81.2100   34.7530 C   0  0  0  0  0  0  0  0  0  0  0  0
   59.3100   80.2140   31.7410 C   0  0  0  0  0  0  0  0  0  0  0  0
   58.0380   80.2930   30.8750 C   0  0  0  0  0  0  0  0  0  0  0  0
   55.8010   79.4190   27.7200 C   0  0  0  0  0  0  0  0  0  0  0  0
   52.7916   80.2832   27.4084 H   0  0  0  0  0  0  0  0  0  0  0  0
   54.0343   80.4567   26.1230 H   0  0  0  0  0  0  0  0  0  0  0  0
   52.9344   79.0366   26.1230 H   0  0  0  0  0  0  0  0  0  0  0  0
   53.0173   77.5168   28.2603 H   0  0  0  0  0  0  0  0  0  0  0  0
   54.6277   76.2912   29.7093 H   0  0  0  0  0  0  0  0  0  0  0  0
   56.9869   77.0654   29.8912 H   0  0  0  0  0  0  0  0  0  0  0  0
   58.7372   78.4485   29.1648 H   0  0  0  0  0  0  0  0  0  0  0  0
   58.5078   79.4353   27.6429 H   0  0  0  0  0  0  0  0  0  0  0  0
   60.3251   80.3447   29.0081 H   0  0  0  0  0  0  0  0  0  0  0  0
   59.4262   81.7412   28.2424 H   0  0  0  0  0  0  0  0  0  0  0  0
   61.0024   82.5153   29.9707 H   0  0  0  0  0  0  0  0  0  0  0  0
   59.2762   82.8544   30.3992 H   0  0  0  0  0  0  0  0  0  0  0  0
   63.2415   80.5543   33.2192 H   0  0  0  0  0  0  0  0  0  0  0  0
   63.6119   79.3270   35.3713 H   0  0  0  0  0  0  0  0  0  0  0  0
   61.0660   79.4010   37.9180 H   0  0  0  0  0  0  0  0  0  0  0  0
   59.6829   80.5206   36.7275 H   0  0  0  0  0  0  0  0  0  0  0  0
   59.3096   81.7558   34.5861 H   0  0  0  0  0  0  0  0  0  0  0  0
   59.8532   79.2916   31.4877 H   0  0  0  0  0  0  0  0  0  0  0  0
   58.9989   80.2213   32.7961 H   0  0  0  0  0  0  0  0  0  0  0  0
   57.4742   79.3587   31.0136 H   0  0  0  0  0  0  0  0  0  0  0  0
   57.4965   81.1893   31.2118 H   0  0  0  0  0  0  0  0  0  0  0  0
   56.1268   80.3140   27.1696 H   0  0  0  0  0  0  0  0  0  0  0  0
  1  2  1  0
  2  3  1  0
  3  4  2  0
  4  5  1  0
  5  6  2  0
  6  7  1  0
  7  8  1  0
  8  9  1  0
  9 10  1  0
 10 11  1  0
 11 12  1  0
 12 13  2  0
 12 14  1  0
 14 15  1  0
 15 16  2  0
 16 17  1  0
 17 18  1  0
 17 19  2  0
 19 20  1  0
 11 21  1  0
 21 22  1  0
  6 23  1  0
 23  2  2  0
 22  8  1  0
 20 14  2  0
  1 24  1  0
  1 25  1  0
  1 26  1  0
  3 27  1  0
  4 28  1  0
  5 29  1  0
  7 30  1  0
  7 31  1  0
  9 32  1  0
  9 33  1  0
 10 34  1  0
 10 35  1  0
 15 36  1  0
 16 37  1  0
 18 38  1  0
 19 39  1  0
 20 40  1  0
 21 41  1  0
 21 42  1  0
 22 43  1  0
 22 44  1  0
 23 45  1  0
M  END
>  <meeko>  (1) 
{"is_sidechain": false}

>  <smiles>  (1) 
Cc1cccc(CN2CCN(C(=O)c3ccc(O)cc3)CC2)c1

>  <vina_score>  (1) 
-7.918

>  <job_id>  (1) 
9f0b444a0da6178f

$$$$
