
     RDKit          3D

 51 53  0  0  0  0  0  0  0  0999 V2000
   58.1230   83.4300   32.2800 C   0  0  0  0  0  0  0  0  0  0  0  0
   58.1990   81.9030   32.2680 C   0  0  0  0  0  0  0  0  0  0  0  0
   57.8100   81.3570   33.6450 C   0  0  0  0  0  0  0  0  0  0  0  0
   59.5950   81.3870   31.8770 C   0  0  0  0  0  0  0  0  0  0  0  0
   59.6510   80.7940   30.4710 C   0  0  0  0  0  0  0  0  0  0  0  0
   58.5950   79.8200   30.2730 N   0  0  0  0  0  0  0  0  0  0  0  0
   58.0220   79.6620   29.0260 C   0  0  0  0  0  0  0  0  0  0  0  0
   58.4210   80.2320   28.0170 O   0  0  0  0  0  0  0  0  0  0  0  0
   56.8320   78.7710   28.9610 C   0  0  0  0  0  0  0  0  0  0  0  0
   56.6820   77.6890   29.8360 C   0  0  0  0  0  0  0  0  0  0  0  0
   55.5600   76.8560   29.7610 C   0  0  0  0  0  0  0  0  0  0  0  0
   54.6050   77.1390   28.7760 C   0  0  0  0  0  0  0  0  0  0  0  0
   53.4240   76.4970   28.4820 N   0  0  0  0  0  0  0  0  0  0  0  0
   52.7900   77.1050   27.4290 C   0  0  0  0  0  0  0  0  0  0  0  0
   51.6300   76.6580   26.9560 O   0  0  0  0  0  0  0  0  0  0  0  0
   53.5790   78.1680   27.0230 C   0  0  0  0  0  0  0  0  0  0  0  0
   53.2380   79.0440   25.9090 C   0  0  0  0  0  0  0  0  0  0  0  0
   52.8110   80.3580   26.1490 C   0  0  0  0  0  0  0  0  0  0  0  0
   52.4760   81.2010   25.0870 C   0  0  0  0  0  0  0  0  0  0  0  0
   52.5790   80.7300   23.7780 C   0  0  0  0  0  0  0  0  0  0  0  0
   52.1730   81.7930   22.4200 S   0  0  0  0  0  0  0  0  0  0  0  0
   50.5700   81.3590   22.1250 N   0  0  0  0  0  0  0  0  0  0  0  0
   52.1850   83.1600   22.8840 O   0  0  0  0  0  0  0  0  0  0  0  0
   52.9100   81.3600   21.2560 O   0  0  0  0  0  0  0  0  0  0  0  0
   52.9910   79.4200   23.5200 C   0  0  0  0  0  0  0  0  0  0  0  0
   53.3220   78.5820   24.5870 C   0  0  0  0  0  0  0  0  0  0  0  0
   54.7310   78.1960   27.8760 C   0  0  0  0  0  0  0  0  0  0  0  0
   55.8670   79.0260   27.9750 C   0  0  0  0  0  0  0  0  0  0  0  0
   58.1052   83.7881   33.3199 H   0  0  0  0  0  0  0  0  0  0  0  0
   59.0016   83.8449   31.7643 H   0  0  0  0  0  0  0  0  0  0  0  0
   57.2075   83.7556   31.7643 H   0  0  0  0  0  0  0  0  0  0  0  0
   57.4932   81.5441   31.5045 H   0  0  0  0  0  0  0  0  0  0  0  0
   58.2579   81.9857   34.4286 H   0  0  0  0  0  0  0  0  0  0  0  0
   56.7149   81.3677   33.7477 H   0  0  0  0  0  0  0  0  0  0  0  0
   58.1778   80.3254   33.7477 H   0  0  0  0  0  0  0  0  0  0  0  0
   60.3042   82.2262   31.9299 H   0  0  0  0  0  0  0  0  0  0  0  0
   59.8515   80.5806   32.5798 H   0  0  0  0  0  0  0  0  0  0  0  0
   59.5360   81.6033   29.7349 H   0  0  0  0  0  0  0  0  0  0  0  0
   60.6201   80.2897   30.3428 H   0  0  0  0  0  0  0  0  0  0  0  0
   58.0250   79.5820   31.0740 H   0  0  0  0  0  0  0  0  0  0  0  0
   57.4558   77.4909   30.5922 H   0  0  0  0  0  0  0  0  0  0  0  0
   55.4325   76.0090   30.4511 H   0  0  0  0  0  0  0  0  0  0  0  0
   53.0840   75.6890   28.9810 H   0  0  0  0  0  0  0  0  0  0  0  0
   50.9530   76.6780   27.6510 H   0  0  0  0  0  0  0  0  0  0  0  0
   52.7393   80.7279   27.1824 H   0  0  0  0  0  0  0  0  0  0  0  0
   52.1337   82.2282   25.2813 H   0  0  0  0  0  0  0  0  0  0  0  0
   50.1470   81.8910   21.3650 H   0  0  0  0  0  0  0  0  0  0  0  0
   50.0430   81.4520   22.9940 H   0  0  0  0  0  0  0  0  0  0  0  0
   53.0541   79.0519   22.4853 H   0  0  0  0  0  0  0  0  0  0  0  0
   53.6513   77.5512   24.3893 H   0  0  0  0  0  0  0  0  0  0  0  0
   55.9959   79.8702   27.2817 H   0  0  0  0  0  0  0  0  0  0  0  0
  1  2  1  0
  2  3  1  0
  2  4  1  0
  4  5  1  0
  5  6  1  0
  6  7  1  0
  7  8  2  0
  7  9  1  0
  9 10  2  0
 10 11  1  0
 11 12  2  0
 12 13  1  0
 13 14  1  0
 14 15  1  0
 14 16  2  0
 16 17  1  0
 17 18  1  0
 18 19  2  0
 19 20  1  0
 20 21  1  0
 21 22  1  0
 21 23  2  0
 21 24  2  0
 20 25  2  0
 25 26  1  0
 16 27  1  0
 27 28  2  0
 28  9  1  0
 27 12  1  0
 26 17  2  0
  1 29  1  0
  1 30  1  0
  1 31  1  0
  2 32  1  0
  3 33  1  0
  3 34  1  0
  3 35  1  0
  4 36  1  0
  4 37  1  0
  5 38  1  0
  5 39  1  0
  6 40  1  0
 10 41  1  0
 11 42  1  0
 13 43  1  0
 15 44  1  0
 18 45  1  0
 19 46  1  0
 22 47  1  0
 22 48  1  0
 25 49  1  0
 26 50  1  0
 28 51  1  0
M  END
>  <meeko>  (1) 
{"is_sidechain": false}

>  <smiles>  (1) 
CC(C)CCNC(=O)c1ccc2[nH]c(O)c(-c3ccc(S(N)(=O)=O)cc3)c2c1

>  <vina_score>  (1) 
-9.181

>  <job_id>  (1) 
9f0fcaa54796b920

$$$$
