
     RDKit          3D

 39 40  0  0  0  0  0  0  0  0999 V2000
   59.5000   81.3700   29.1450 C   0  0  0  0  0  0  0  0  0  0  0  0
   58.9450   80.1390   29.8650 C   0  0  0  0  0  0  0  0  0  0  0  0
   58.5600   80.4840   31.3040 C   0  0  0  0  0  0  0  0  0  0  0  0
   57.7830   79.4820   29.0960 C   0  0  0  0  0  0  0  0  0  0  0  0
   57.0620   78.5330   29.9260 N   0  0  0  0  0  0  0  0  0  0  0  0
   55.9400   77.9780   29.3280 C   0  0  0  0  0  0  0  0  0  0  0  0
   55.4290   76.8220   29.7690 N   0  0  0  0  0  0  0  0  0  0  0  0
   54.3330   76.3650   29.1440 C   0  0  0  0  0  0  0  0  0  0  0  0
   53.7380   77.0110   28.0890 C   0  0  0  0  0  0  0  0  0  0  0  0
   54.3330   78.1880   27.6840 C   0  0  0  0  0  0  0  0  0  0  0  0
   53.8190   79.0070   26.5650 C   0  0  0  0  0  0  0  0  0  0  0  0
   53.7360   78.4690   25.2660 C   0  0  0  0  0  0  0  0  0  0  0  0
   53.2570   79.2230   24.1890 C   0  0  0  0  0  0  0  0  0  0  0  0
   52.8380   80.5350   24.4050 C   0  0  0  0  0  0  0  0  0  0  0  0
   52.2610   81.5040   23.0440 S   0  0  0  0  0  0  0  0  0  0  0  0
   50.6720   80.9820   22.8940 N   0  0  0  0  0  0  0  0  0  0  0  0
   52.1850   82.8900   23.4450 O   0  0  0  0  0  0  0  0  0  0  0  0
   52.9350   81.0820   21.8390 O   0  0  0  0  0  0  0  0  0  0  0  0
   52.9110   81.1010   25.6780 C   0  0  0  0  0  0  0  0  0  0  0  0
   53.3930   80.3380   26.7480 C   0  0  0  0  0  0  0  0  0  0  0  0
   55.4330   78.6750   28.3040 N   0  0  0  0  0  0  0  0  0  0  0  0
   59.8335   82.1098   29.8876 H   0  0  0  0  0  0  0  0  0  0  0  0
   60.3515   81.0734   28.5149 H   0  0  0  0  0  0  0  0  0  0  0  0
   58.7139   81.8117   28.5149 H   0  0  0  0  0  0  0  0  0  0  0  0
   59.7468   79.3868   29.9006 H   0  0  0  0  0  0  0  0  0  0  0  0
   59.1946   79.9154   31.9997 H   0  0  0  0  0  0  0  0  0  0  0  0
   58.7036   81.5613   31.4738 H   0  0  0  0  0  0  0  0  0  0  0  0
   57.5049   80.2235   31.4738 H   0  0  0  0  0  0  0  0  0  0  0  0
   57.0869   80.2659   28.7628 H   0  0  0  0  0  0  0  0  0  0  0  0
   58.2027   78.9384   28.2367 H   0  0  0  0  0  0  0  0  0  0  0  0
   56.7390   78.8840   30.8210 H   0  0  0  0  0  0  0  0  0  0  0  0
   53.8877   75.4227   29.4957 H   0  0  0  0  0  0  0  0  0  0  0  0
   52.8391   76.6133   27.5952 H   0  0  0  0  0  0  0  0  0  0  0  0
   54.0556   77.4306   25.0939 H   0  0  0  0  0  0  0  0  0  0  0  0
   53.2115   78.7846   23.1812 H   0  0  0  0  0  0  0  0  0  0  0  0
   50.1410   81.2480   23.7230 H   0  0  0  0  0  0  0  0  0  0  0  0
   50.6540   79.9810   22.6950 H   0  0  0  0  0  0  0  0  0  0  0  0
   52.5916   82.1411   25.8400 H   0  0  0  0  0  0  0  0  0  0  0  0
   53.4402   80.7860   27.7515 H   0  0  0  0  0  0  0  0  0  0  0  0
  1  2  1  0
  2  3  1  0
  2  4  1  0
  4  5  1  0
  5  6  1  0
  6  7  2  0
  7  8  1  0
  8  9  2  0
  9 10  1  0
 10 11  1  0
 11 12  1  0
 12 13  2  0
 13 14  1  0
 14 15  1  0
 15 16  1  0
 15 17  2  0
 15 18  2  0
 14 19  2  0
 19 20  1  0
 10 21  2  0
 21  6  1  0
 20 11  2  0
  1 22  1  0
  1 23  1  0
  1 24  1  0
  2 25  1  0
  3 26  1  0
  3 27  1  0
  3 28  1  0
  4 29  1  0
  4 30  1  0
  5 31  1  0
  8 32  1  0
  9 33  1  0
 12 34  1  0
 13 35  1  0
 16 36  1  0
 16 37  1  0
 19 38  1  0
 20 39  1  0
M  END
>  <meeko>  (1) 
{"is_sidechain": false}

>  <smiles>  (1) 
CC(C)CNc1nccc(-c2ccc(S(N)(=O)=O)cc2)n1

>  <vina_score>  (1) 
-7.917

>  <job_id>  (1) 
9f6a95c5c56845dd

$$$$
