
     RDKit          3D

 40 42  0  0  0  0  0  0  0  0999 V2000
   58.9550   80.7040   31.0750 C   0  0  0  0  0  0  0  0  0  0  0  0
   59.3100   80.3320   29.6470 C   0  0  0  0  0  0  0  0  0  0  0  0
   58.3170   79.3580   29.0380 C   0  0  0  0  0  0  0  0  0  0  0  0
   58.4240   78.9030   27.9020 O   0  0  0  0  0  0  0  0  0  0  0  0
   57.2890   79.0480   29.9130 N   0  0  0  0  0  0  0  0  0  0  0  0
   56.2610   78.1940   29.5560 C   0  0  0  0  0  0  0  0  0  0  0  0
   56.1300   76.9080   30.0220 N   0  0  0  0  0  0  0  0  0  0  0  0
   55.0600   76.2400   29.5420 N   0  0  0  0  0  0  0  0  0  0  0  0
   54.4610   77.1120   28.7150 C   0  0  0  0  0  0  0  0  0  0  0  0
   53.3020   76.9590   27.9370 C   0  0  0  0  0  0  0  0  0  0  0  0
   52.9630   78.1110   27.1910 C   0  0  0  0  0  0  0  0  0  0  0  0
   53.7270   79.3230   27.1970 C   0  0  0  0  0  0  0  0  0  0  0  0
   53.1720   80.4220   26.4440 N   0  0  0  0  0  0  0  0  0  0  0  0
   53.5790   81.7730   26.9060 C   0  0  0  0  0  0  0  0  0  0  0  0
   52.5590   82.8060   26.4260 C   0  0  0  0  0  0  0  0  0  0  0  0
   52.4360   82.8570   24.9020 C   0  0  0  0  0  0  0  0  0  0  0  0
   52.0140   81.5190   24.3130 C   0  0  0  0  0  0  0  0  0  0  0  0
   53.1640   80.2270   24.7460 S   0  0  0  0  0  0  0  0  0  0  0  0
   54.4740   80.5870   24.2380 O   0  0  0  0  0  0  0  0  0  0  0  0
   52.5600   78.9530   24.4200 O   0  0  0  0  0  0  0  0  0  0  0  0
   54.8790   79.5080   27.9930 C   0  0  0  0  0  0  0  0  0  0  0  0
   55.1940   78.3570   28.7120 C   0  0  0  0  0  0  0  0  0  0  0  0
   59.5429   80.0880   31.7713 H   0  0  0  0  0  0  0  0  0  0  0  0
   59.1822   81.7669   31.2443 H   0  0  0  0  0  0  0  0  0  0  0  0
   57.8827   80.5268   31.2443 H   0  0  0  0  0  0  0  0  0  0  0  0
   59.3261   81.2474   29.0372 H   0  0  0  0  0  0  0  0  0  0  0  0
   60.2941   79.8408   29.6634 H   0  0  0  0  0  0  0  0  0  0  0  0
   57.2620   79.4710   30.8330 H   0  0  0  0  0  0  0  0  0  0  0  0
   56.7570   76.4430   30.6770 H   0  0  0  0  0  0  0  0  0  0  0  0
   52.7133   76.0302   27.9105 H   0  0  0  0  0  0  0  0  0  0  0  0
   52.0573   78.0746   26.5678 H   0  0  0  0  0  0  0  0  0  0  0  0
   53.6245   81.7862   28.0050 H   0  0  0  0  0  0  0  0  0  0  0  0
   54.5693   82.0177   26.4945 H   0  0  0  0  0  0  0  0  0  0  0  0
   51.5760   82.5517   26.8492 H   0  0  0  0  0  0  0  0  0  0  0  0
   52.9062   83.7940   26.7626 H   0  0  0  0  0  0  0  0  0  0  0  0
   51.6856   83.6148   24.6326 H   0  0  0  0  0  0  0  0  0  0  0  0
   53.4253   83.1088   24.4922 H   0  0  0  0  0  0  0  0  0  0  0  0
   51.0181   81.2560   24.6990 H   0  0  0  0  0  0  0  0  0  0  0  0
   51.9951   81.6132   23.2172 H   0  0  0  0  0  0  0  0  0  0  0  0
   55.4554   80.4438   28.0394 H   0  0  0  0  0  0  0  0  0  0  0  0
  1  2  1  0
  2  3  1  0
  3  4  2  0
  3  5  1  0
  5  6  1  0
  6  7  1  0
  7  8  1  0
  8  9  2  0
  9 10  1  0
 10 11  2  0
 11 12  1  0
 12 13  1  0
 13 14  1  0
 14 15  1  0
 15 16  1  0
 16 17  1  0
 17 18  1  0
 18 19  2  0
 18 20  2  0
 12 21  2  0
 21 22  1  0
 22  6  2  0
 22  9  1  0
 18 13  1  0
  1 23  1  0
  1 24  1  0
  1 25  1  0
  2 26  1  0
  2 27  1  0
  5 28  1  0
  7 29  1  0
 10 30  1  0
 11 31  1  0
 14 32  1  0
 14 33  1  0
 15 34  1  0
 15 35  1  0
 16 36  1  0
 16 37  1  0
 17 38  1  0
 17 39  1  0
 21 40  1  0
M  END
>  <meeko>  (1) 
{"is_sidechain": false}

>  <smiles>  (1) 
CCC(=O)Nc1[nH]nc2ccc(N3CCCCS3(=O)=O)cc12

>  <vina_score>  (1) 
-8.155

>  <job_id>  (1) 
9febfa7ed4c8c576

$$$$
