
     RDKit          3D

 43 46  0  0  0  0  0  0  0  0999 V2000
   60.8010   83.0660   30.6800 C   0  0  0  0  0  0  0  0  0  0  0  0
   60.0150   81.8590   30.6030 N   0  0  0  0  0  0  0  0  0  0  0  0
   59.6840   81.1660   29.4750 C   0  0  0  0  0  0  0  0  0  0  0  0
   58.9360   80.0950   29.8920 C   0  0  0  0  0  0  0  0  0  0  0  0
   58.3730   79.1140   29.1620 N   0  0  0  0  0  0  0  0  0  0  0  0
   57.0700   78.9290   28.6950 C   0  0  0  0  0  0  0  0  0  0  0  0
   56.2330   78.0470   29.2610 N   0  0  0  0  0  0  0  0  0  0  0  0
   55.0000   77.9410   28.7360 C   0  0  0  0  0  0  0  0  0  0  0  0
   54.5660   78.6730   27.6550 C   0  0  0  0  0  0  0  0  0  0  0  0
   55.4830   79.5710   27.1400 C   0  0  0  0  0  0  0  0  0  0  0  0
   56.7320   79.6950   27.6450 N   0  0  0  0  0  0  0  0  0  0  0  0
   55.1320   80.4490   25.9580 C   0  0  0  0  0  0  0  0  0  0  0  0
   53.7460   80.3310   25.4870 N   0  0  0  0  0  0  0  0  0  0  0  0
   53.3100   81.3000   24.5760 C   0  0  0  0  0  0  0  0  0  0  0  0
   53.4070   82.5020   24.8510 O   0  0  0  0  0  0  0  0  0  0  0  0
   52.7040   80.8070   23.2340 C   0  0  0  0  0  0  0  0  0  0  0  0
   52.8660   81.7320   21.9910 C   0  0  0  0  0  0  0  0  0  0  0  0
   51.4650   81.2770   21.5470 C   0  0  0  0  0  0  0  0  0  0  0  0
   51.1710   80.9830   23.0290 C   0  0  0  0  0  0  0  0  0  0  0  0
   53.1160   79.0230   25.6520 C   0  0  0  0  0  0  0  0  0  0  0  0
   53.1810   78.5580   27.1060 C   0  0  0  0  0  0  0  0  0  0  0  0
   58.8730   80.2330   31.2950 C   0  0  0  0  0  0  0  0  0  0  0  0
   59.5310   81.3100   31.7340 N   0  0  0  0  0  0  0  0  0  0  0  0
   60.9706   83.3264   31.7352 H   0  0  0  0  0  0  0  0  0  0  0  0
   61.7685   82.9059   30.1818 H   0  0  0  0  0  0  0  0  0  0  0  0
   60.2633   83.8861   30.1818 H   0  0  0  0  0  0  0  0  0  0  0  0
   59.9612   81.4160   28.4403 H   0  0  0  0  0  0  0  0  0  0  0  0
   58.9170   78.3230   28.8390 H   0  0  0  0  0  0  0  0  0  0  0  0
   54.2990   77.2293   29.1964 H   0  0  0  0  0  0  0  0  0  0  0  0
   55.3062   81.4960   26.2470 H   0  0  0  0  0  0  0  0  0  0  0  0
   55.7689   80.1137   25.1262 H   0  0  0  0  0  0  0  0  0  0  0  0
   53.1784   79.8165   23.2972 H   0  0  0  0  0  0  0  0  0  0  0  0
   52.9467   82.8038   22.2251 H   0  0  0  0  0  0  0  0  0  0  0  0
   53.7365   81.6536   21.3232 H   0  0  0  0  0  0  0  0  0  0  0  0
   50.8436   82.0690   21.1035 H   0  0  0  0  0  0  0  0  0  0  0  0
   51.3223   80.5167   20.7650 H   0  0  0  0  0  0  0  0  0  0  0  0
   50.7284   81.8236   23.5835 H   0  0  0  0  0  0  0  0  0  0  0  0
   50.4556   80.2041   23.3315 H   0  0  0  0  0  0  0  0  0  0  0  0
   52.0623   79.0908   25.3437 H   0  0  0  0  0  0  0  0  0  0  0  0
   53.6563   78.2950   25.0290 H   0  0  0  0  0  0  0  0  0  0  0  0
   52.5038   79.1791   27.7108 H   0  0  0  0  0  0  0  0  0  0  0  0
   52.8806   77.5005   27.1445 H   0  0  0  0  0  0  0  0  0  0  0  0
   58.3410   79.5315   31.9544 H   0  0  0  0  0  0  0  0  0  0  0  0
  1  2  1  0
  2  3  1  0
  3  4  2  0
  4  5  1  0
  5  6  1  0
  6  7  2  0
  7  8  1  0
  8  9  2  0
  9 10  1  0
 10 11  2  0
 10 12  1  0
 12 13  1  0
 13 14  1  0
 14 15  2  0
 14 16  1  0
 16 17  1  0
 17 18  1  0
 18 19  1  0
 13 20  1  0
 20 21  1  0
  4 22  1  0
 22 23  2  0
 23  2  1  0
 11  6  1  0
 19 16  1  0
 21  9  1  0
  1 24  1  0
  1 25  1  0
  1 26  1  0
  3 27  1  0
  5 28  1  0
  8 29  1  0
 12 30  1  0
 12 31  1  0
 16 32  1  0
 17 33  1  0
 17 34  1  0
 18 35  1  0
 18 36  1  0
 19 37  1  0
 19 38  1  0
 20 39  1  0
 20 40  1  0
 21 41  1  0
 21 42  1  0
 22 43  1  0
M  END
>  <meeko>  (1) 
{"is_sidechain": false}

>  <smiles>  (1) 
Cn1cc(Nc2ncc3c(n2)CN(C(=O)C2CCC2)CC3)cn1

>  <vina_score>  (1) 
-8.168

>  <job_id>  (1) 
a004542f330793cd

$$$$
