
     RDKit          3D

 77 82  0  0  0  0  0  0  0  0999 V2000
   58.9460   84.7230   31.9840 C   0  0  0  0  0  0  0  0  0  0  0  0
   60.0490   83.7140   31.6200 C   0  0  0  0  0  0  0  0  0  0  0  0
   59.5280   82.4000   31.0370 C   0  0  0  0  0  0  0  0  0  0  0  0
   59.8250   81.9620   29.7410 C   0  0  0  0  0  0  0  0  0  0  0  0
   59.3100   80.7520   29.2510 C   0  0  0  0  0  0  0  0  0  0  0  0
   58.4810   79.9440   30.0300 C   0  0  0  0  0  0  0  0  0  0  0  0
   57.9310   78.7330   29.5940 N   0  0  0  0  0  0  0  0  0  0  0  0
   56.6910   78.3550   29.0900 C   0  0  0  0  0  0  0  0  0  0  0  0
   56.0480   77.2600   29.5310 N   0  0  0  0  0  0  0  0  0  0  0  0
   54.8490   76.9690   28.9900 C   0  0  0  0  0  0  0  0  0  0  0  0
   54.2530   77.7400   28.0280 C   0  0  0  0  0  0  0  0  0  0  0  0
   55.0030   78.8360   27.6320 C   0  0  0  0  0  0  0  0  0  0  0  0
   56.2010   79.1640   28.1370 N   0  0  0  0  0  0  0  0  0  0  0  0
   54.4290   79.6980   26.6150 C   0  0  0  0  0  0  0  0  0  0  0  0
   53.1250   79.5900   26.1650 C   0  0  0  0  0  0  0  0  0  0  0  0
   52.9650   80.6270   25.2030 C   0  0  0  0  0  0  0  0  0  0  0  0
   51.7730   80.9850   24.4190 C   0  0  0  0  0  0  0  0  0  0  0  0
   52.0120   81.3880   23.1290 N   0  0  0  0  0  0  0  0  0  0  0  0
   50.6220   80.9820   24.8490 O   0  0  0  0  0  0  0  0  0  0  0  0
   54.1140   81.3160   25.0680 N   0  0  0  0  0  0  0  0  0  0  0  0
   54.9730   80.7480   25.9390 N   0  0  0  0  0  0  0  0  0  0  0  0
   56.3110   81.2810   26.0520 C   0  0  0  0  0  0  0  0  0  0  0  0
   52.1850   78.5960   26.7580 C   0  0  0  0  0  0  0  0  0  0  0  0
   52.9450   77.3870   27.3650 C   0  0  0  0  0  0  0  0  0  0  0  0
   58.1720   80.3930   31.3220 C   0  0  0  0  0  0  0  0  0  0  0  0
   58.6830   81.5990   31.8170 C   0  0  0  0  0  0  0  0  0  0  0  0
   61.0390   83.4730   32.6860 N   0  0  0  0  0  0  0  0  0  0  0  0
   62.0120   82.4090   32.4010 C   0  0  0  0  0  0  0  0  0  0  0  0
   62.7110   81.9000   33.6810 C   0  0  0  0  0  0  0  0  0  0  0  0
   61.7680   81.1790   34.5740 N   0  0  0  0  0  0  0  0  0  0  0  0
   62.3080   81.0030   35.9510 N   0  0  0  0  0  0  0  0  0  0  0  0
   61.1850   80.9210   36.9170 C   0  0  0  0  0  0  0  0  0  0  0  0
   61.6920   80.8900   38.3840 C   0  0  0  0  0  0  0  0  0  0  0  0
   62.9860   80.2120   38.6200 N   0  0  0  0  0  0  0  0  0  0  0  0
   64.0840   81.1790   38.6820 C   0  0  0  0  0  0  0  0  0  0  0  0
   63.2180   79.2210   37.5560 C   0  0  0  0  0  0  0  0  0  0  0  0
   63.0960   79.7470   36.0980 C   0  0  0  0  0  0  0  0  0  0  0  0
   60.4760   81.9210   34.6300 C   0  0  0  0  0  0  0  0  0  0  0  0
   60.4770   83.3510   34.0380 C   0  0  0  0  0  0  0  0  0  0  0  0
   58.8642   84.7979   33.0784 H   0  0  0  0  0  0  0  0  0  0  0  0
   59.1988   85.7090   31.5669 H   0  0  0  0  0  0  0  0  0  0  0  0
   57.9864   84.3836   31.5669 H   0  0  0  0  0  0  0  0  0  0  0  0
   60.5894   84.2274   30.8111 H   0  0  0  0  0  0  0  0  0  0  0  0
   60.4719   82.5756   29.0969 H   0  0  0  0  0  0  0  0  0  0  0  0
   59.5657   80.4333   28.2297 H   0  0  0  0  0  0  0  0  0  0  0  0
   58.5470   77.9350   29.5850 H   0  0  0  0  0  0  0  0  0  0  0  0
   54.3230   76.0678   29.3381 H   0  0  0  0  0  0  0  0  0  0  0  0
   52.9180   81.7720   22.9050 H   0  0  0  0  0  0  0  0  0  0  0  0
   51.2100   81.8150   22.6820 H   0  0  0  0  0  0  0  0  0  0  0  0
   56.5752   81.3863   27.1146 H   0  0  0  0  0  0  0  0  0  0  0  0
   57.0207   80.5969   25.5637 H   0  0  0  0  0  0  0  0  0  0  0  0
   56.3559   82.2657   25.5637 H   0  0  0  0  0  0  0  0  0  0  0  0
   51.6005   79.0855   27.5509 H   0  0  0  0  0  0  0  0  0  0  0  0
   51.5265   78.2242   25.9592 H   0  0  0  0  0  0  0  0  0  0  0  0
   52.2952   76.9148   28.1165 H   0  0  0  0  0  0  0  0  0  0  0  0
   53.1894   76.7180   26.5268 H   0  0  0  0  0  0  0  0  0  0  0  0
   57.5141   79.7848   31.9602 H   0  0  0  0  0  0  0  0  0  0  0  0
   58.4170   81.9228   32.8341 H   0  0  0  0  0  0  0  0  0  0  0  0
   61.4874   81.5673   31.9252 H   0  0  0  0  0  0  0  0  0  0  0  0
   62.7840   82.8259   31.7375 H   0  0  0  0  0  0  0  0  0  0  0  0
   63.5240   81.2164   33.3951 H   0  0  0  0  0  0  0  0  0  0  0  0
   63.1014   82.7713   34.2273 H   0  0  0  0  0  0  0  0  0  0  0  0
   60.5344   81.7978   36.7829 H   0  0  0  0  0  0  0  0  0  0  0  0
   60.6338   79.9887   36.7244 H   0  0  0  0  0  0  0  0  0  0  0  0
   61.7928   81.9309   38.7251 H   0  0  0  0  0  0  0  0  0  0  0  0
   60.9477   80.2986   38.9374 H   0  0  0  0  0  0  0  0  0  0  0  0
   64.3260   81.3921   39.7337 H   0  0  0  0  0  0  0  0  0  0  0  0
   64.9690   80.7616   38.1794 H   0  0  0  0  0  0  0  0  0  0  0  0
   63.7818   82.1096   38.1794 H   0  0  0  0  0  0  0  0  0  0  0  0
   64.2340   78.8196   37.6853 H   0  0  0  0  0  0  0  0  0  0  0  0
   62.4208   78.4715   37.6691 H   0  0  0  0  0  0  0  0  0  0  0  0
   64.1104   79.9326   35.7151 H   0  0  0  0  0  0  0  0  0  0  0  0
   62.5541   78.9735   35.5340 H   0  0  0  0  0  0  0  0  0  0  0  0
   59.7276   81.3317   34.0799 H   0  0  0  0  0  0  0  0  0  0  0  0
   60.2586   82.0484   35.7008 H   0  0  0  0  0  0  0  0  0  0  0  0
   59.4363   83.7058   34.0062 H   0  0  0  0  0  0  0  0  0  0  0  0
   61.1283   83.9493   34.6921 H   0  0  0  0  0  0  0  0  0  0  0  0
  1  2  1  0
  2  3  1  0
  3  4  1  0
  4  5  2  0
  5  6  1  0
  6  7  1  0
  7  8  1  0
  8  9  2  0
  9 10  1  0
 10 11  2  0
 11 12  1  0
 12 13  2  0
 12 14  1  0
 14 15  2  0
 15 16  1  0
 16 17  1  0
 17 18  1  0
 17 19  2  0
 16 20  2  0
 20 21  1  0
 21 22  1  0
 15 23  1  0
 23 24  1  0
  6 25  2  0
 25 26  1  0
  2 27  1  0
 27 28  1  0
 28 29  1  0
 29 30  1  0
 30 31  1  0
 31 32  1  0
 32 33  1  0
 33 34  1  0
 34 35  1  0
 34 36  1  0
 36 37  1  0
 30 38  1  0
 38 39  1  0
 26  3  2  0
 39 27  1  0
 13  8  1  0
 21 14  1  0
 37 31  1  0
 24 11  1  0
  1 40  1  0
  1 41  1  0
  1 42  1  0
  2 43  1  0
  4 44  1  0
  5 45  1  0
  7 46  1  0
 10 47  1  0
 18 48  1  0
 18 49  1  0
 22 50  1  0
 22 51  1  0
 22 52  1  0
 23 53  1  0
 23 54  1  0
 24 55  1  0
 24 56  1  0
 25 57  1  0
 26 58  1  0
 28 59  1  0
 28 60  1  0
 29 61  1  0
 29 62  1  0
 32 63  1  0
 32 64  1  0
 33 65  1  0
 33 66  1  0
 35 67  1  0
 35 68  1  0
 35 69  1  0
 36 70  1  0
 36 71  1  0
 37 72  1  0
 37 73  1  0
 38 74  1  0
 38 75  1  0
 39 76  1  0
 39 77  1  0
M  END
>  <meeko>  (1) 
{"is_sidechain": false}

>  <smiles>  (1) 
CC(c1ccc(Nc2ncc3c(n2)-c2c(c(C(N)=O)nn2C)CC3)cc1)N1CCN(N2CCN(C)CC2)CC1

>  <vina_score>  (1) 
-8.959

>  <job_id>  (1) 
a023b61de3062013

$$$$
