
     RDKit          3D

 59 61  0  0  0  0  0  0  0  0999 V2000
   60.2280   80.6030   35.3520 C   0  0  0  0  0  0  0  0  0  0  0  0
   60.6770   81.1490   33.9930 C   0  0  1  0  0  0  0  0  0  0  0  0
   59.5720   81.8260   33.2950 N   0  0  0  0  0  0  0  0  0  0  0  0
   59.5070   81.7550   31.9030 C   0  0  0  0  0  0  0  0  0  0  0  0
   58.9700   80.6550   31.3330 N   0  0  0  0  0  0  0  0  0  0  0  0
   58.9590   80.5540   29.9920 C   0  0  0  0  0  0  0  0  0  0  0  0
   58.3730   79.3900   29.5020 N   0  0  0  0  0  0  0  0  0  0  0  0
   57.1700   79.1070   28.8460 C   0  0  0  0  0  0  0  0  0  0  0  0
   56.8610   79.8260   27.6770 C   0  0  0  0  0  0  0  0  0  0  0  0
   55.6830   79.5890   26.9620 C   0  0  0  0  0  0  0  0  0  0  0  0
   54.7930   78.6160   27.4150 C   0  0  0  0  0  0  0  0  0  0  0  0
   53.3060   78.2830   26.5070 S   0  0  0  0  0  0  0  0  0  0  0  0
   53.6830   77.6560   25.2550 O   0  0  0  0  0  0  0  0  0  0  0  0
   52.5180   79.5040   26.5200 O   0  0  0  0  0  0  0  0  0  0  0  0
   52.5210   77.1470   27.4240 O   0  0  0  0  0  0  0  0  0  0  0  0
   52.3780   75.7880   26.8410 N   0  0  0  0  0  0  0  0  0  0  0  0
   55.0760   77.8810   28.5660 C   0  0  0  0  0  0  0  0  0  0  0  0
   56.2600   78.1310   29.2710 C   0  0  0  0  0  0  0  0  0  0  0  0
   59.4650   81.4910   29.1810 N   0  0  0  0  0  0  0  0  0  0  0  0
   60.0180   82.5710   29.7660 C   0  0  0  0  0  0  0  0  0  0  0  0
   60.0730   82.7540   31.1260 C   0  0  0  0  0  0  0  0  0  0  0  0
   60.8670   84.3100   31.8440 Br  0  0  0  0  0  0  0  0  0  0  0  0
   61.8210   82.1410   34.2320 C   0  0  0  0  0  0  0  0  0  0  0  0
   61.6620   83.0630   35.2100 N   0  0  0  0  0  0  0  0  0  0  0  0
   62.6900   83.9130   35.3890 C   0  0  0  0  0  0  0  0  0  0  0  0
   63.8570   83.8660   34.6570 C   0  0  0  0  0  0  0  0  0  0  0  0
   65.2390   85.1080   35.0060 Br  0  0  0  0  0  0  0  0  0  0  0  0
   63.9540   82.8680   33.6940 C   0  0  0  0  0  0  0  0  0  0  0  0
   65.0950   82.7900   32.8790 N   0  0  0  0  0  0  0  0  0  0  0  0
   64.8980   82.6110   31.4340 C   0  0  2  0  0  0  0  0  0  0  0  0
   65.9220   81.6220   30.8680 C   0  0  0  0  0  0  0  0  0  0  0  0
   64.9530   83.9980   30.7300 C   0  0  1  0  0  0  0  0  0  0  0  0
   66.3560   84.4750   30.3740 C   0  0  0  0  0  0  0  0  0  0  0  0
   64.1880   83.9760   29.5190 O   0  0  0  0  0  0  0  0  0  0  0  0
   62.9350   82.0130   33.4780 N   0  0  0  0  0  0  0  0  0  0  0  0
   60.7049   81.1829   36.1559 H   0  0  0  0  0  0  0  0  0  0  0  0
   59.1346   80.6874   35.4380 H   0  0  0  0  0  0  0  0  0  0  0  0
   60.5220   79.5465   35.4380 H   0  0  0  0  0  0  0  0  0  0  0  0
   61.0084   80.3130   33.3595 H   0  0  0  0  0  0  0  0  0  0  0  0
   58.6800   81.6430   33.7470 H   0  0  0  0  0  0  0  0  0  0  0  0
   59.0190   78.6260   29.6260 H   0  0  0  0  0  0  0  0  0  0  0  0
   57.5627   80.5928   27.3169 H   0  0  0  0  0  0  0  0  0  0  0  0
   55.4606   80.1644   26.0513 H   0  0  0  0  0  0  0  0  0  0  0  0
   51.8220   75.3020   27.5600 H   0  0  0  0  0  0  0  0  0  0  0  0
   51.7150   75.9820   26.0890 H   0  0  0  0  0  0  0  0  0  0  0  0
   54.3742   77.1104   28.9176 H   0  0  0  0  0  0  0  0  0  0  0  0
   56.4799   77.5484   30.1778 H   0  0  0  0  0  0  0  0  0  0  0  0
   60.4492   83.3491   29.1189 H   0  0  0  0  0  0  0  0  0  0  0  0
   62.5935   84.6888   36.1629 H   0  0  0  0  0  0  0  0  0  0  0  0
   65.7600   82.1290   33.2740 H   0  0  0  0  0  0  0  0  0  0  0  0
   63.9060   82.1760   31.2426 H   0  0  0  0  0  0  0  0  0  0  0  0
   66.4427   81.1191   31.6963 H   0  0  0  0  0  0  0  0  0  0  0  0
   65.4053   80.8724   30.2507 H   0  0  0  0  0  0  0  0  0  0  0  0
   66.6532   82.1644   30.2507 H   0  0  0  0  0  0  0  0  0  0  0  0
   64.5384   84.6987   31.4697 H   0  0  0  0  0  0  0  0  0  0  0  0
   66.9229   84.6677   31.2968 H   0  0  0  0  0  0  0  0  0  0  0  0
   66.8680   83.7004   29.7842 H   0  0  0  0  0  0  0  0  0  0  0  0
   66.2898   85.4011   29.7842 H   0  0  0  0  0  0  0  0  0  0  0  0
   64.6480   84.5490   28.8800 H   0  0  0  0  0  0  0  0  0  0  0  0
  1  2  1  0
  2  3  1  0
  3  4  1  0
  4  5  2  0
  5  6  1  0
  6  7  1  0
  7  8  1  0
  8  9  1  0
  9 10  2  0
 10 11  1  0
 11 12  1  0
 12 13  2  0
 12 14  2  0
 12 15  1  0
 15 16  1  0
 11 17  2  0
 17 18  1  0
  6 19  2  0
 19 20  1  0
 20 21  2  0
 21 22  1  0
  2 23  1  0
 23 24  2  0
 24 25  1  0
 25 26  2  0
 26 27  1  0
 26 28  1  0
 28 29  1  0
 29 30  1  0
 30 31  1  0
 30 32  1  0
 32 33  1  0
 32 34  1  0
 28 35  2  0
 21  4  1  0
 35 23  1  0
 18  8  2  0
  1 36  1  0
  1 37  1  0
  1 38  1  0
  2 39  1  6
  3 40  1  0
  7 41  1  0
  9 42  1  0
 10 43  1  0
 16 44  1  0
 16 45  1  0
 17 46  1  0
 18 47  1  0
 20 48  1  0
 25 49  1  0
 29 50  1  0
 30 51  1  1
 31 52  1  0
 31 53  1  0
 31 54  1  0
 32 55  1  1
 33 56  1  0
 33 57  1  0
 33 58  1  0
 34 59  1  0
M  END
>  <meeko>  (1) 
{"is_sidechain": false}

>  <smiles>  (1) 
C[C@@H](Nc1nc(Nc2ccc(S(=O)(=O)ON)cc2)ncc1Br)c1ncc(Br)c(N[C@H](C)[C@@H](C)O)n1

>  <vina_score>  (1) 
-7.480

>  <job_id>  (1) 
a08256a40a34d5ef

$$$$
