
     RDKit          3D

 47 49  0  0  0  0  0  0  0  0999 V2000
   64.5800   81.7320   31.1520 C   0  0  0  0  0  0  0  0  0  0  0  0
   64.3840   82.4280   32.4900 C   0  0  0  0  0  0  0  0  0  0  0  0
   63.0520   82.0380   33.1350 C   0  0  0  0  0  0  0  0  0  0  0  0
   61.9080   82.9160   32.6050 C   0  0  0  0  0  0  0  0  0  0  0  0
   60.7240   82.2210   32.0880 N   0  0  0  0  0  0  0  0  0  0  0  0
   60.3340   81.0520   32.8850 C   0  0  0  0  0  0  0  0  0  0  0  0
   58.9240   80.6010   32.4970 C   0  0  0  0  0  0  0  0  0  0  0  0
   58.7580   80.4670   31.0070 C   0  0  0  0  0  0  0  0  0  0  0  0
   57.6970   79.7380   30.5750 N   0  0  0  0  0  0  0  0  0  0  0  0
   57.4800   79.6350   29.2390 C   0  0  0  0  0  0  0  0  0  0  0  0
   56.3040   78.8310   28.8440 C   0  0  0  0  0  0  0  0  0  0  0  0
   55.9340   77.6580   29.5320 C   0  0  0  0  0  0  0  0  0  0  0  0
   54.8160   76.9070   29.1460 C   0  0  0  0  0  0  0  0  0  0  0  0
   54.0560   77.3170   28.0510 C   0  0  0  0  0  0  0  0  0  0  0  0
   52.6260   76.3920   27.5780 S   0  0  0  0  0  0  0  0  0  0  0  0
   53.0590   74.8310   28.0200 N   0  0  0  0  0  0  0  0  0  0  0  0
   52.5180   76.3830   26.1370 O   0  0  0  0  0  0  0  0  0  0  0  0
   51.5200   76.7530   28.4340 O   0  0  0  0  0  0  0  0  0  0  0  0
   54.3910   78.4750   27.3510 C   0  0  0  0  0  0  0  0  0  0  0  0
   55.5100   79.2160   27.7440 C   0  0  0  0  0  0  0  0  0  0  0  0
   58.3290   80.2430   28.3170 C   0  0  0  0  0  0  0  0  0  0  0  0
   59.4170   80.9840   28.7730 C   0  0  0  0  0  0  0  0  0  0  0  0
   59.6390   81.1160   30.1440 C   0  0  0  0  0  0  0  0  0  0  0  0
   60.8410   81.8620   30.6670 C   0  0  0  0  0  0  0  0  0  0  0  0
   64.8746   80.6860   31.3225 H   0  0  0  0  0  0  0  0  0  0  0  0
   63.6391   81.7599   30.5829 H   0  0  0  0  0  0  0  0  0  0  0  0
   65.3681   82.2468   30.5829 H   0  0  0  0  0  0  0  0  0  0  0  0
   65.2048   82.1433   33.1647 H   0  0  0  0  0  0  0  0  0  0  0  0
   64.3787   83.5142   32.3166 H   0  0  0  0  0  0  0  0  0  0  0  0
   62.8345   80.9848   32.9036 H   0  0  0  0  0  0  0  0  0  0  0  0
   63.1321   82.1840   34.2223 H   0  0  0  0  0  0  0  0  0  0  0  0
   61.5786   83.5661   33.4290 H   0  0  0  0  0  0  0  0  0  0  0  0
   62.3306   83.4465   31.7390 H   0  0  0  0  0  0  0  0  0  0  0  0
   61.0429   80.2316   32.6994 H   0  0  0  0  0  0  0  0  0  0  0  0
   60.3463   81.3215   33.9514 H   0  0  0  0  0  0  0  0  0  0  0  0
   58.7231   79.6258   32.9646 H   0  0  0  0  0  0  0  0  0  0  0  0
   58.2168   81.3672   32.8473 H   0  0  0  0  0  0  0  0  0  0  0  0
   56.5358   77.3250   30.3904 H   0  0  0  0  0  0  0  0  0  0  0  0
   54.5395   75.9997   29.7031 H   0  0  0  0  0  0  0  0  0  0  0  0
   53.4960   74.8410   28.9420 H   0  0  0  0  0  0  0  0  0  0  0  0
   53.6360   74.4110   27.2910 H   0  0  0  0  0  0  0  0  0  0  0  0
   53.7804   78.8031   26.4969 H   0  0  0  0  0  0  0  0  0  0  0  0
   55.7776   80.1222   27.1808 H   0  0  0  0  0  0  0  0  0  0  0  0
   58.1419   80.1389   27.2380 H   0  0  0  0  0  0  0  0  0  0  0  0
   60.0985   81.4632   28.0547 H   0  0  0  0  0  0  0  0  0  0  0  0
   61.7301   81.2272   30.5384 H   0  0  0  0  0  0  0  0  0  0  0  0
   60.9183   82.7997   30.0972 H   0  0  0  0  0  0  0  0  0  0  0  0
  1  2  1  0
  2  3  1  0
  3  4  1  0
  4  5  1  0
  5  6  1  0
  6  7  1  0
  7  8  1  0
  8  9  1  0
  9 10  2  0
 10 11  1  0
 11 12  1  0
 12 13  2  0
 13 14  1  0
 14 15  1  0
 15 16  1  0
 15 17  2  0
 15 18  2  0
 14 19  2  0
 19 20  1  0
 10 21  1  0
 21 22  2  0
 22 23  1  0
 23 24  1  0
 24  5  1  0
 23  8  2  0
 20 11  2  0
  1 25  1  0
  1 26  1  0
  1 27  1  0
  2 28  1  0
  2 29  1  0
  3 30  1  0
  3 31  1  0
  4 32  1  0
  4 33  1  0
  6 34  1  0
  6 35  1  0
  7 36  1  0
  7 37  1  0
 12 38  1  0
 13 39  1  0
 16 40  1  0
 16 41  1  0
 19 42  1  0
 20 43  1  0
 21 44  1  0
 22 45  1  0
 24 46  1  0
 24 47  1  0
M  END
>  <meeko>  (1) 
{"is_sidechain": false}

>  <smiles>  (1) 
CCCCN1CCc2nc(-c3ccc(S(N)(=O)=O)cc3)ccc2C1

>  <vina_score>  (1) 
-7.448

>  <job_id>  (1) 
a0d133ca60cc39dd

$$$$
