
     RDKit          3D

 60 64  0  0  0  0  0  0  0  0999 V2000
   56.3110   81.3030   26.5510 C   0  0  0  0  0  0  0  0  0  0  0  0
   55.0370   80.6820   26.2750 N   0  0  0  0  0  0  0  0  0  0  0  0
   54.2530   81.1980   25.2970 N   0  0  0  0  0  0  0  0  0  0  0  0
   53.1740   80.3830   25.2610 C   0  0  0  0  0  0  0  0  0  0  0  0
   52.0670   80.6130   24.3210 C   0  0  0  0  0  0  0  0  0  0  0  0
   52.3160   80.1780   23.0490 N   0  0  0  0  0  0  0  0  0  0  0  0
   51.0040   81.1470   24.6220 O   0  0  0  0  0  0  0  0  0  0  0  0
   53.2950   79.3540   26.2240 C   0  0  0  0  0  0  0  0  0  0  0  0
   54.4920   79.5860   26.8730 C   0  0  0  0  0  0  0  0  0  0  0  0
   54.9950   78.7410   27.9410 C   0  0  0  0  0  0  0  0  0  0  0  0
   56.0310   79.1870   28.6650 N   0  0  0  0  0  0  0  0  0  0  0  0
   56.4670   78.3750   29.6380 C   0  0  0  0  0  0  0  0  0  0  0  0
   57.5590   78.7100   30.4350 N   0  0  0  0  0  0  0  0  0  0  0  0
   58.2560   79.9000   30.6550 C   0  0  0  0  0  0  0  0  0  0  0  0
   58.9760   80.4650   29.5950 C   0  0  0  0  0  0  0  0  0  0  0  0
   59.6550   81.6830   29.7380 C   0  0  0  0  0  0  0  0  0  0  0  0
   59.6390   82.3760   30.9480 C   0  0  0  0  0  0  0  0  0  0  0  0
   60.2700   83.6170   31.1330 N   0  0  0  0  0  0  0  0  0  0  0  0
   61.5990   84.0330   30.9490 C   0  0  0  0  0  0  0  0  0  0  0  0
   62.6570   83.1390   30.7530 C   0  0  0  0  0  0  0  0  0  0  0  0
   63.9730   83.5950   30.6090 C   0  0  0  0  0  0  0  0  0  0  0  0
   64.2570   84.9600   30.6610 C   0  0  0  0  0  0  0  0  0  0  0  0
   65.9390   85.5140   30.4810 S   0  0  0  0  0  0  0  0  0  0  0  0
   66.0850   85.4720   28.7240 C   0  0  0  0  0  0  0  0  0  0  0  0
   66.5570   84.5010   28.1410 O   0  0  0  0  0  0  0  0  0  0  0  0
   65.5640   86.7250   28.0230 C   0  0  0  0  0  0  0  0  0  0  0  0
   65.6740   86.6060   26.5550 N   0  0  0  0  0  0  0  0  0  0  0  0
   63.2130   85.8610   30.8740 C   0  0  0  0  0  0  0  0  0  0  0  0
   61.8990   85.4000   31.0150 C   0  0  0  0  0  0  0  0  0  0  0  0
   58.9060   81.8240   32.0040 C   0  0  0  0  0  0  0  0  0  0  0  0
   58.2230   80.6080   31.8570 C   0  0  0  0  0  0  0  0  0  0  0  0
   55.9320   77.1660   29.8970 N   0  0  0  0  0  0  0  0  0  0  0  0
   54.8810   76.7710   29.1530 C   0  0  0  0  0  0  0  0  0  0  0  0
   54.3430   77.5350   28.1510 C   0  0  0  0  0  0  0  0  0  0  0  0
   53.2110   77.0730   27.2640 C   0  0  0  0  0  0  0  0  0  0  0  0
   52.4040   78.2220   26.6060 C   0  0  0  0  0  0  0  0  0  0  0  0
   56.4563   81.3738   27.6391 H   0  0  0  0  0  0  0  0  0  0  0  0
   57.1171   80.6968   26.1121 H   0  0  0  0  0  0  0  0  0  0  0  0
   56.3301   82.3115   26.1121 H   0  0  0  0  0  0  0  0  0  0  0  0
   53.2230   79.7690   22.8510 H   0  0  0  0  0  0  0  0  0  0  0  0
   51.6310   80.3170   22.3250 H   0  0  0  0  0  0  0  0  0  0  0  0
   57.7330   77.9580   31.0870 H   0  0  0  0  0  0  0  0  0  0  0  0
   59.0095   79.9412   28.6283 H   0  0  0  0  0  0  0  0  0  0  0  0
   60.2087   82.0983   28.8830 H   0  0  0  0  0  0  0  0  0  0  0  0
   59.6560   84.3380   31.4950 H   0  0  0  0  0  0  0  0  0  0  0  0
   62.4515   82.0592   30.7113 H   0  0  0  0  0  0  0  0  0  0  0  0
   64.7879   82.8726   30.4539 H   0  0  0  0  0  0  0  0  0  0  0  0
   64.5077   86.8726   28.2920 H   0  0  0  0  0  0  0  0  0  0  0  0
   66.1727   87.5818   28.3476 H   0  0  0  0  0  0  0  0  0  0  0  0
   65.3860   87.4970   26.1420 H   0  0  0  0  0  0  0  0  0  0  0  0
   66.6660   86.5390   26.3160 H   0  0  0  0  0  0  0  0  0  0  0  0
   63.4238   86.9391   30.9314 H   0  0  0  0  0  0  0  0  0  0  0  0
   61.0874   86.1238   31.1806 H   0  0  0  0  0  0  0  0  0  0  0  0
   58.8646   82.3535   32.9673 H   0  0  0  0  0  0  0  0  0  0  0  0
   57.6504   80.2047   32.7053 H   0  0  0  0  0  0  0  0  0  0  0  0
   54.4331   75.7878   29.3598 H   0  0  0  0  0  0  0  0  0  0  0  0
   53.6338   76.4474   26.4641 H   0  0  0  0  0  0  0  0  0  0  0  0
   52.5088   76.5256   27.9100 H   0  0  0  0  0  0  0  0  0  0  0  0
   51.9035   77.8389   25.7045 H   0  0  0  0  0  0  0  0  0  0  0  0
   51.6644   78.5897   27.3325 H   0  0  0  0  0  0  0  0  0  0  0  0
  1  2  1  0
  2  3  1  0
  3  4  2  0
  4  5  1  0
  5  6  1  0
  5  7  2  0
  4  8  1  0
  8  9  2  0
  9 10  1  0
 10 11  2  0
 11 12  1  0
 12 13  1  0
 13 14  1  0
 14 15  1  0
 15 16  2  0
 16 17  1  0
 17 18  1  0
 18 19  1  0
 19 20  1  0
 20 21  2  0
 21 22  1  0
 22 23  1  0
 23 24  1  0
 24 25  2  0
 24 26  1  0
 26 27  1  0
 22 28  2  0
 28 29  1  0
 17 30  2  0
 30 31  1  0
 12 32  2  0
 32 33  1  0
 33 34  2  0
 34 35  1  0
 35 36  1  0
  9  2  1  0
 34 10  1  0
 36  8  1  0
 31 14  2  0
 29 19  2  0
  1 37  1  0
  1 38  1  0
  1 39  1  0
  6 40  1  0
  6 41  1  0
 13 42  1  0
 15 43  1  0
 16 44  1  0
 18 45  1  0
 20 46  1  0
 21 47  1  0
 26 48  1  0
 26 49  1  0
 27 50  1  0
 27 51  1  0
 28 52  1  0
 29 53  1  0
 30 54  1  0
 31 55  1  0
 33 56  1  0
 35 57  1  0
 35 58  1  0
 36 59  1  0
 36 60  1  0
M  END
>  <meeko>  (1) 
{"is_sidechain": false}

>  <smiles>  (1) 
Cn1nc(C(N)=O)c2c1-c1nc(Nc3ccc(Nc4ccc(SC(=O)CN)cc4)cc3)ncc1CC2

>  <vina_score>  (1) 
-8.404

>  <job_id>  (1) 
a1054cea831cbd01

$$$$
