
     RDKit          3D

 64 66  0  0  0  0  0  0  0  0999 V2000
   52.3470   80.7620   23.4980 C   0  0  0  0  0  0  0  0  0  0  0  0
   53.1640   81.2180   24.6250 N   0  0  0  0  0  0  0  0  0  0  0  0
   52.9020   82.6330   24.8900 C   0  0  0  0  0  0  0  0  0  0  0  0
   52.8960   80.3800   25.8150 C   0  0  0  0  0  0  0  0  0  0  0  0
   53.9680   79.3110   26.1850 C   0  0  1  0  0  0  0  0  0  0  0  0
   54.7830   79.8230   27.2630 O   0  0  0  0  0  0  0  0  0  0  0  0
   56.0190   80.2610   26.9250 C   0  0  0  0  0  0  0  0  0  0  0  0
   56.3330   80.6070   25.7930 O   0  0  0  0  0  0  0  0  0  0  0  0
   56.8790   80.2780   27.9960 N   0  0  0  0  0  0  0  0  0  0  0  0
   57.4250   81.5910   28.4470 C   0  0  0  0  0  0  0  0  0  0  0  0
   58.2690   81.1660   29.5660 C   0  0  0  0  0  0  0  0  0  0  0  0
   59.1330   81.6310   30.5580 C   0  0  0  0  0  0  0  0  0  0  0  0
   59.5590   82.8950   30.8770 N   0  0  0  0  0  0  0  0  0  0  0  0
   58.8950   83.8010   31.6710 C   0  0  0  0  0  0  0  0  0  0  0  0
   57.8120   83.5900   32.2110 O   0  0  0  0  0  0  0  0  0  0  0  0
   59.6350   85.1480   31.8420 C   0  0  0  0  0  0  0  0  0  0  0  0
   58.9350   86.2400   31.0200 C   0  0  0  0  0  0  0  0  0  0  0  0
   59.6140   85.5610   33.3250 C   0  0  0  0  0  0  0  0  0  0  0  0
   61.0980   85.0050   31.3950 C   0  0  0  0  0  0  0  0  0  0  0  0
   59.5950   80.6060   31.3010 N   0  0  0  0  0  0  0  0  0  0  0  0
   59.0190   79.5010   30.7680 N   0  0  0  0  0  0  0  0  0  0  0  0
   58.2220   79.8160   29.7300 C   0  0  0  0  0  0  0  0  0  0  0  0
   57.3580   79.0850   28.7790 C   0  0  0  0  0  0  0  0  0  0  0  0
   58.1850   78.1200   27.9260 C   0  0  0  0  0  0  0  0  0  0  0  0
   56.2190   78.3760   29.5150 C   0  0  0  0  0  0  0  0  0  0  0  0
   53.4630   77.9660   26.6850 C   0  0  0  0  0  0  0  0  0  0  0  0
   52.9350   77.0570   25.7500 C   0  0  0  0  0  0  0  0  0  0  0  0
   52.4820   75.7960   26.1450 C   0  0  0  0  0  0  0  0  0  0  0  0
   52.5550   75.4200   27.4830 C   0  0  0  0  0  0  0  0  0  0  0  0
   53.0830   76.3030   28.4220 C   0  0  0  0  0  0  0  0  0  0  0  0
   53.5370   77.5640   28.0270 C   0  0  0  0  0  0  0  0  0  0  0  0
   51.4457   80.2590   23.8783 H   0  0  0  0  0  0  0  0  0  0  0  0
   52.0531   81.6266   22.8847 H   0  0  0  0  0  0  0  0  0  0  0  0
   52.9286   80.0580   22.8847 H   0  0  0  0  0  0  0  0  0  0  0  0
   52.8705   82.8029   25.9763 H   0  0  0  0  0  0  0  0  0  0  0  0
   53.7024   83.2434   24.4464 H   0  0  0  0  0  0  0  0  0  0  0  0
   51.9361   82.9164   24.4464 H   0  0  0  0  0  0  0  0  0  0  0  0
   52.7882   81.0539   26.6777 H   0  0  0  0  0  0  0  0  0  0  0  0
   51.9944   79.8035   25.5605 H   0  0  0  0  0  0  0  0  0  0  0  0
   54.4871   79.1333   25.2316 H   0  0  0  0  0  0  0  0  0  0  0  0
   58.0152   82.0773   27.6564 H   0  0  0  0  0  0  0  0  0  0  0  0
   56.6603   82.3366   28.7102 H   0  0  0  0  0  0  0  0  0  0  0  0
   60.4500   83.1190   30.4580 H   0  0  0  0  0  0  0  0  0  0  0  0
   58.4683   86.9681   31.6997 H   0  0  0  0  0  0  0  0  0  0  0  0
   59.6738   86.7518   30.3857 H   0  0  0  0  0  0  0  0  0  0  0  0
   58.1615   85.7824   30.3857 H   0  0  0  0  0  0  0  0  0  0  0  0
   59.6597   84.6617   33.9568 H   0  0  0  0  0  0  0  0  0  0  0  0
   60.4806   86.2038   33.5389 H   0  0  0  0  0  0  0  0  0  0  0  0
   58.6866   86.1126   33.5389 H   0  0  0  0  0  0  0  0  0  0  0  0
   61.7474   84.9415   32.2806 H   0  0  0  0  0  0  0  0  0  0  0  0
   61.2096   84.0917   30.7922 H   0  0  0  0  0  0  0  0  0  0  0  0
   61.3844   85.8794   30.7922 H   0  0  0  0  0  0  0  0  0  0  0  0
   59.2300   78.5960   31.1760 H   0  0  0  0  0  0  0  0  0  0  0  0
   58.7592   77.4500   28.5828 H   0  0  0  0  0  0  0  0  0  0  0  0
   57.5131   77.5238   27.2911 H   0  0  0  0  0  0  0  0  0  0  0  0
   58.8770   78.6927   27.2911 H   0  0  0  0  0  0  0  0  0  0  0  0
   56.3696   78.4697   30.6006 H   0  0  0  0  0  0  0  0  0  0  0  0
   55.2597   78.8368   29.2367 H   0  0  0  0  0  0  0  0  0  0  0  0
   56.2090   77.3118   29.2367 H   0  0  0  0  0  0  0  0  0  0  0  0
   52.8779   77.3442   24.6897 H   0  0  0  0  0  0  0  0  0  0  0  0
   52.0681   75.1011   25.3995 H   0  0  0  0  0  0  0  0  0  0  0  0
   52.1969   74.4287   27.7979 H   0  0  0  0  0  0  0  0  0  0  0  0
   53.1428   76.0062   29.4795 H   0  0  0  0  0  0  0  0  0  0  0  0
   53.9575   78.2498   28.7773 H   0  0  0  0  0  0  0  0  0  0  0  0
  1  2  1  0
  2  3  1  0
  2  4  1  0
  4  5  1  0
  5  6  1  0
  6  7  1  0
  7  8  2  0
  7  9  1  0
  9 10  1  0
 10 11  1  0
 11 12  1  0
 12 13  1  0
 13 14  1  0
 14 15  2  0
 14 16  1  0
 16 17  1  0
 16 18  1  0
 16 19  1  0
 12 20  2  0
 20 21  1  0
 21 22  1  0
 22 23  1  0
 23 24  1  0
 23 25  1  0
  5 26  1  0
 26 27  2  0
 27 28  1  0
 28 29  2  0
 29 30  1  0
 30 31  2  0
 23  9  1  0
 31 26  1  0
 22 11  2  0
  1 32  1  0
  1 33  1  0
  1 34  1  0
  3 35  1  0
  3 36  1  0
  3 37  1  0
  4 38  1  0
  4 39  1  0
  5 40  1  6
 10 41  1  0
 10 42  1  0
 13 43  1  0
 17 44  1  0
 17 45  1  0
 17 46  1  0
 18 47  1  0
 18 48  1  0
 18 49  1  0
 19 50  1  0
 19 51  1  0
 19 52  1  0
 21 53  1  0
 24 54  1  0
 24 55  1  0
 24 56  1  0
 25 57  1  0
 25 58  1  0
 25 59  1  0
 27 60  1  0
 28 61  1  0
 29 62  1  0
 30 63  1  0
 31 64  1  0
M  END
>  <meeko>  (1) 
{"is_sidechain": false}

>  <smiles>  (1) 
CN(C)C[C@@H](OC(=O)N1Cc2c(NC(=O)C(C)(C)C)n[nH]c2C1(C)C)c1ccccc1

>  <vina_score>  (1) 
-7.258

>  <job_id>  (1) 
a11911ebc0ba93b4

$$$$
