
     RDKit          3D

 40 42  0  0  0  0  0  0  0  0999 V2000
   58.8730   79.9430   28.6550 C   0  0  0  0  0  0  0  0  0  0  0  0
   57.9460   79.5740   29.5590 C   0  0  0  0  0  0  0  0  0  0  0  0
   58.1400   79.8410   31.0240 C   0  0  0  0  0  0  0  0  0  0  0  0
   56.6910   78.8900   29.1670 C   0  0  0  0  0  0  0  0  0  0  0  0
   56.3130   77.8230   29.8900 N   0  0  0  0  0  0  0  0  0  0  0  0
   55.1750   77.2220   29.5110 C   0  0  0  0  0  0  0  0  0  0  0  0
   54.4070   77.6440   28.4520 C   0  0  0  0  0  0  0  0  0  0  0  0
   54.8620   78.7520   27.7630 C   0  0  0  0  0  0  0  0  0  0  0  0
   54.1510   79.3250   26.6000 C   0  0  0  0  0  0  0  0  0  0  0  0
   54.0200   78.6380   25.3860 C   0  0  0  0  0  0  0  0  0  0  0  0
   53.3440   79.2070   24.2920 C   0  0  0  0  0  0  0  0  0  0  0  0
   52.7620   80.4810   24.3510 C   0  0  0  0  0  0  0  0  0  0  0  0
   52.0990   81.0350   23.2730 N   0  0  0  0  0  0  0  0  0  0  0  0
   50.6340   80.9820   23.1410 C   0  0  0  0  0  0  0  0  0  0  0  0
   50.2360   81.0520   21.6570 C   0  0  0  0  0  0  0  0  0  0  0  0
   50.6850   82.2370   20.9850 O   0  0  0  0  0  0  0  0  0  0  0  0
   51.8920   82.7790   21.5390 C   0  0  0  0  0  0  0  0  0  0  0  0
   52.8120   81.7320   22.1900 C   0  0  0  0  0  0  0  0  0  0  0  0
   52.8900   81.1560   25.5720 C   0  0  0  0  0  0  0  0  0  0  0  0
   53.5640   80.5950   26.6690 C   0  0  0  0  0  0  0  0  0  0  0  0
   56.0100   79.3750   28.1130 N   0  0  0  0  0  0  0  0  0  0  0  0
   58.7114   79.7380   27.5864 H   0  0  0  0  0  0  0  0  0  0  0  0
   59.7920   80.4495   28.9850 H   0  0  0  0  0  0  0  0  0  0  0  0
   57.5927   79.0877   31.6096 H   0  0  0  0  0  0  0  0  0  0  0  0
   59.2113   79.7875   31.2677 H   0  0  0  0  0  0  0  0  0  0  0  0
   57.7581   80.8434   31.2677 H   0  0  0  0  0  0  0  0  0  0  0  0
   54.8378   76.3426   30.0793 H   0  0  0  0  0  0  0  0  0  0  0  0
   53.4787   77.1267   28.1679 H   0  0  0  0  0  0  0  0  0  0  0  0
   54.4550   77.6326   25.2865 H   0  0  0  0  0  0  0  0  0  0  0  0
   53.2693   78.6322   23.3571 H   0  0  0  0  0  0  0  0  0  0  0  0
   50.2632   80.0410   23.5735 H   0  0  0  0  0  0  0  0  0  0  0  0
   50.1926   81.8372   23.6737 H   0  0  0  0  0  0  0  0  0  0  0  0
   50.6655   80.1796   21.1427 H   0  0  0  0  0  0  0  0  0  0  0  0
   49.1366   81.0662   21.6240 H   0  0  0  0  0  0  0  0  0  0  0  0
   52.4505   83.2744   20.7311 H   0  0  0  0  0  0  0  0  0  0  0  0
   51.5899   83.4741   22.3362 H   0  0  0  0  0  0  0  0  0  0  0  0
   53.1248   81.0003   21.4306 H   0  0  0  0  0  0  0  0  0  0  0  0
   53.6945   82.2386   22.6079 H   0  0  0  0  0  0  0  0  0  0  0  0
   52.4482   82.1581   25.6748 H   0  0  0  0  0  0  0  0  0  0  0  0
   53.6327   81.1673   27.6059 H   0  0  0  0  0  0  0  0  0  0  0  0
  1  2  2  0
  2  3  1  0
  2  4  1  0
  4  5  2  0
  5  6  1  0
  6  7  2  0
  7  8  1  0
  8  9  1  0
  9 10  1  0
 10 11  2  0
 11 12  1  0
 12 13  1  0
 13 14  1  0
 14 15  1  0
 15 16  1  0
 16 17  1  0
 17 18  1  0
 12 19  2  0
 19 20  1  0
  8 21  2  0
 21  4  1  0
 20  9  2  0
 18 13  1  0
  1 22  1  0
  1 23  1  0
  3 24  1  0
  3 25  1  0
  3 26  1  0
  6 27  1  0
  7 28  1  0
 10 29  1  0
 11 30  1  0
 14 31  1  0
 14 32  1  0
 15 33  1  0
 15 34  1  0
 17 35  1  0
 17 36  1  0
 18 37  1  0
 18 38  1  0
 19 39  1  0
 20 40  1  0
M  END
>  <meeko>  (1) 
{"is_sidechain": false}

>  <smiles>  (1) 
C=C(C)c1nccc(-c2ccc(N3CCOCC3)cc2)n1

>  <vina_score>  (1) 
-7.542

>  <job_id>  (1) 
a1e0cce692dc0eaf

$$$$
