
     RDKit          3D

 36 37  0  0  0  0  0  0  0  0999 V2000
   52.4780   81.4170   22.3970 C   0  0  0  0  0  0  0  0  0  0  0  0
   53.3110   81.0110   23.5020 N   0  0  0  0  0  0  0  0  0  0  0  0
   52.7420   80.6620   24.7110 C   0  0  0  0  0  0  0  0  0  0  0  0
   51.5430   80.7470   24.9450 O   0  0  0  0  0  0  0  0  0  0  0  0
   53.6720   80.1240   25.7410 C   0  0  0  0  0  0  0  0  0  0  0  0
   54.9540   80.6630   25.8360 C   0  0  0  0  0  0  0  0  0  0  0  0
   55.8590   80.1810   26.7940 C   0  0  0  0  0  0  0  0  0  0  0  0
   55.5160   79.1430   27.6720 C   0  0  0  0  0  0  0  0  0  0  0  0
   56.4350   78.6300   28.6620 N   0  0  0  0  0  0  0  0  0  0  0  0
   55.8980   77.6820   29.6440 C   0  0  0  0  0  0  0  0  0  0  0  0
   57.7880   79.0260   28.7030 C   0  0  0  0  0  0  0  0  0  0  0  0
   58.7110   78.5900   28.0200 O   0  0  0  0  0  0  0  0  0  0  0  0
   58.1700   80.1130   29.6320 C   0  0  0  0  0  0  0  0  0  0  0  0
   58.5610   81.3600   29.1310 C   0  0  0  0  0  0  0  0  0  0  0  0
   58.9330   82.3690   30.0180 C   0  0  0  0  0  0  0  0  0  0  0  0
   58.9270   82.1260   31.3930 C   0  0  0  0  0  0  0  0  0  0  0  0
   58.5580   80.8730   31.8870 C   0  0  0  0  0  0  0  0  0  0  0  0
   58.1860   79.8580   31.0050 C   0  0  0  0  0  0  0  0  0  0  0  0
   54.2230   78.5990   27.5450 C   0  0  0  0  0  0  0  0  0  0  0  0
   53.3100   79.0790   26.5930 C   0  0  0  0  0  0  0  0  0  0  0  0
   51.5519   81.8684   22.7825 H   0  0  0  0  0  0  0  0  0  0  0  0
   53.0169   82.1535   21.7828 H   0  0  0  0  0  0  0  0  0  0  0  0
   52.2299   80.5388   21.7828 H   0  0  0  0  0  0  0  0  0  0  0  0
   54.2350   80.6600   23.2880 H   0  0  0  0  0  0  0  0  0  0  0  0
   55.2583   81.4717   25.1553 H   0  0  0  0  0  0  0  0  0  0  0  0
   56.8619   80.6284   26.8577 H   0  0  0  0  0  0  0  0  0  0  0  0
   56.1060   78.0492   30.6598 H   0  0  0  0  0  0  0  0  0  0  0  0
   54.8112   77.5856   29.5043 H   0  0  0  0  0  0  0  0  0  0  0  0
   56.3741   76.7003   29.5043 H   0  0  0  0  0  0  0  0  0  0  0  0
   58.5746   81.5424   28.0463 H   0  0  0  0  0  0  0  0  0  0  0  0
   59.2311   83.3561   29.6349 H   0  0  0  0  0  0  0  0  0  0  0  0
   59.2145   82.9260   32.0910 H   0  0  0  0  0  0  0  0  0  0  0  0
   58.5606   80.6864   32.9710 H   0  0  0  0  0  0  0  0  0  0  0  0
   57.9076   78.8651   31.3879 H   0  0  0  0  0  0  0  0  0  0  0  0
   53.9207   77.7762   28.2095 H   0  0  0  0  0  0  0  0  0  0  0  0
   52.3081   78.6312   26.5182 H   0  0  0  0  0  0  0  0  0  0  0  0
  1  2  1  0
  2  3  1  0
  3  4  2  0
  3  5  1  0
  5  6  1  0
  6  7  2  0
  7  8  1  0
  8  9  1  0
  9 10  1  0
  9 11  1  0
 11 12  2  0
 11 13  1  0
 13 14  2  0
 14 15  1  0
 15 16  2  0
 16 17  1  0
 17 18  2  0
  8 19  2  0
 19 20  1  0
 20  5  2  0
 18 13  1  0
  1 21  1  0
  1 22  1  0
  1 23  1  0
  2 24  1  0
  6 25  1  0
  7 26  1  0
 10 27  1  0
 10 28  1  0
 10 29  1  0
 14 30  1  0
 15 31  1  0
 16 32  1  0
 17 33  1  0
 18 34  1  0
 19 35  1  0
 20 36  1  0
M  END
>  <meeko>  (1) 
{"is_sidechain": false}

>  <smiles>  (1) 
CNC(=O)c1ccc(N(C)C(=O)c2ccccc2)cc1

>  <vina_score>  (1) 
-7.823

>  <job_id>  (1) 
a23df2a1b98fdb47

$$$$
