
     RDKit          3D

 64 66  0  0  0  0  0  0  0  0999 V2000
   59.4300   80.6070   35.1460 C   0  0  0  0  0  0  0  0  0  0  0  0
   60.8020   79.9890   35.2510 C   0  0  0  0  0  0  0  0  0  0  0  0
   61.1860   79.4760   36.3040 O   0  0  0  0  0  0  0  0  0  0  0  0
   61.6760   80.0260   34.0180 C   0  0  0  0  0  0  0  0  0  0  0  0
   63.2360   80.8710   34.3940 S   0  0  0  0  0  0  0  0  0  0  0  0
   63.0630   82.2680   33.3410 C   0  0  0  0  0  0  0  0  0  0  0  0
   63.3430   83.5960   33.9970 C   0  0  0  0  0  0  0  0  0  0  0  0
   62.7610   82.0700   32.0960 N   0  0  0  0  0  0  0  0  0  0  0  0
   62.6180   83.1700   31.2990 C   0  0  0  0  0  0  0  0  0  0  0  0
   63.8690   83.7020   30.6530 C   0  0  0  0  0  0  0  0  0  0  0  0
   61.4760   83.6970   31.0070 N   0  0  0  0  0  0  0  0  0  0  0  0
   60.3640   83.1440   31.5920 C   0  0  0  0  0  0  0  0  0  0  0  0
   59.8740   83.5440   32.6440 O   0  0  0  0  0  0  0  0  0  0  0  0
   59.7180   82.0150   30.8580 C   0  0  0  0  0  0  0  0  0  0  0  0
   59.1550   80.9610   31.5820 C   0  0  0  0  0  0  0  0  0  0  0  0
   58.5510   79.8900   30.9130 C   0  0  0  0  0  0  0  0  0  0  0  0
   58.4960   79.8390   29.5090 C   0  0  0  0  0  0  0  0  0  0  0  0
   57.8710   78.7420   28.9070 N   0  0  0  0  0  0  0  0  0  0  0  0
   56.5470   78.3440   28.7550 C   0  0  0  0  0  0  0  0  0  0  0  0
   55.9290   77.5610   29.6540 N   0  0  0  0  0  0  0  0  0  0  0  0
   54.6380   77.2470   29.4220 C   0  0  0  0  0  0  0  0  0  0  0  0
   53.9440   77.6770   28.3240 C   0  0  0  0  0  0  0  0  0  0  0  0
   52.6620   77.3380   28.1400 F   0  0  0  0  0  0  0  0  0  0  0  0
   54.6520   78.4600   27.4400 C   0  0  0  0  0  0  0  0  0  0  0  0
   54.0490   79.0220   26.2340 C   0  0  0  0  0  0  0  0  0  0  0  0
   53.5380   78.3600   25.1350 C   0  0  0  0  0  0  0  0  0  0  0  0
   53.0080   79.2250   24.2270 N   0  0  0  0  0  0  0  0  0  0  0  0
   53.1820   80.4300   24.7290 C   0  0  0  0  0  0  0  0  0  0  0  0
   52.7100   81.6670   24.0540 C   0  0  0  0  0  0  0  0  0  0  0  0
   53.8620   80.3690   25.9350 N   0  0  0  0  0  0  0  0  0  0  0  0
   54.3420   81.4920   26.7440 C   0  0  0  0  0  0  0  0  0  0  0  0
   53.2240   82.4830   27.0680 C   0  0  0  0  0  0  0  0  0  0  0  0
   55.5770   82.1970   26.1770 C   0  0  0  0  0  0  0  0  0  0  0  0
   55.9450   78.8050   27.6450 N   0  0  0  0  0  0  0  0  0  0  0  0
   59.0600   80.9040   28.8010 C   0  0  0  0  0  0  0  0  0  0  0  0
   59.6660   81.9820   29.4620 C   0  0  0  0  0  0  0  0  0  0  0  0
   59.0307   80.7869   36.1551 H   0  0  0  0  0  0  0  0  0  0  0  0
   59.4983   81.5613   34.6032 H   0  0  0  0  0  0  0  0  0  0  0  0
   58.7605   79.9235   34.6032 H   0  0  0  0  0  0  0  0  0  0  0  0
   61.8878   78.9977   33.6898 H   0  0  0  0  0  0  0  0  0  0  0  0
   61.1522   80.5704   33.2184 H   0  0  0  0  0  0  0  0  0  0  0  0
   63.3180   83.4774   35.0903 H   0  0  0  0  0  0  0  0  0  0  0  0
   64.3365   83.9545   33.6897 H   0  0  0  0  0  0  0  0  0  0  0  0
   62.5788   84.3251   33.6897 H   0  0  0  0  0  0  0  0  0  0  0  0
   64.5834   84.0058   31.4323 H   0  0  0  0  0  0  0  0  0  0  0  0
   64.3204   82.9180   30.0273 H   0  0  0  0  0  0  0  0  0  0  0  0
   63.6175   84.5710   30.0273 H   0  0  0  0  0  0  0  0  0  0  0  0
   59.1865   80.9728   32.6815 H   0  0  0  0  0  0  0  0  0  0  0  0
   58.1096   79.0701   31.4987 H   0  0  0  0  0  0  0  0  0  0  0  0
   58.4660   78.0950   28.4110 H   0  0  0  0  0  0  0  0  0  0  0  0
   54.1160   76.6124   30.1533 H   0  0  0  0  0  0  0  0  0  0  0  0
   53.5569   77.2674   25.0087 H   0  0  0  0  0  0  0  0  0  0  0  0
   52.4256   82.4123   24.8114 H   0  0  0  0  0  0  0  0  0  0  0  0
   53.5166   82.0723   23.4255 H   0  0  0  0  0  0  0  0  0  0  0  0
   51.8384   81.4320   23.4255 H   0  0  0  0  0  0  0  0  0  0  0  0
   54.6771   81.0375   27.6880 H   0  0  0  0  0  0  0  0  0  0  0  0
   53.1203   82.5749   28.1592 H   0  0  0  0  0  0  0  0  0  0  0  0
   53.4694   83.4657   26.6389 H   0  0  0  0  0  0  0  0  0  0  0  0
   52.2778   82.1215   26.6389 H   0  0  0  0  0  0  0  0  0  0  0  0
   56.2064   82.5563   27.0045 H   0  0  0  0  0  0  0  0  0  0  0  0
   56.1513   81.4906   25.5595 H   0  0  0  0  0  0  0  0  0  0  0  0
   55.2607   83.0506   25.5595 H   0  0  0  0  0  0  0  0  0  0  0  0
   59.0278   80.8963   27.7015 H   0  0  0  0  0  0  0  0  0  0  0  0
   60.1027   82.8060   28.8786 H   0  0  0  0  0  0  0  0  0  0  0  0
  1  2  1  0
  2  3  2  0
  2  4  1  0
  4  5  1  0
  5  6  1  0
  6  7  1  0
  6  8  2  3
  8  9  1  0
  9 10  1  0
  9 11  2  3
 11 12  1  0
 12 13  2  0
 12 14  1  0
 14 15  1  0
 15 16  2  0
 16 17  1  0
 17 18  1  0
 18 19  1  0
 19 20  2  0
 20 21  1  0
 21 22  2  0
 22 23  1  0
 22 24  1  0
 24 25  1  0
 25 26  2  0
 26 27  1  0
 27 28  2  0
 28 29  1  0
 28 30  1  0
 30 31  1  0
 31 32  1  0
 31 33  1  0
 24 34  2  0
 17 35  2  0
 35 36  1  0
 36 14  2  0
 34 19  1  0
 30 25  1  0
  1 37  1  0
  1 38  1  0
  1 39  1  0
  4 40  1  0
  4 41  1  0
  7 42  1  0
  7 43  1  0
  7 44  1  0
 10 45  1  0
 10 46  1  0
 10 47  1  0
 15 48  1  0
 16 49  1  0
 18 50  1  0
 21 51  1  0
 26 52  1  0
 29 53  1  0
 29 54  1  0
 29 55  1  0
 31 56  1  0
 32 57  1  0
 32 58  1  0
 32 59  1  0
 33 60  1  0
 33 61  1  0
 33 62  1  0
 35 63  1  0
 36 64  1  0
M  END
>  <meeko>  (1) 
{"is_sidechain": false}

>  <smiles>  (1) 
CC(=O)CSC(C)=NC(C)=NC(=O)c1ccc(Nc2ncc(F)c(-c3cnc(C)n3C(C)C)n2)cc1

>  <vina_score>  (1) 
-8.735

>  <job_id>  (1) 
a2fffb735c43e0e9

$$$$
