
     RDKit          3D

 37 39  0  0  0  0  0  0  0  0999 V2000
   50.2910   81.3570   22.0350 N   0  0  0  0  0  0  0  0  0  0  0  0
   51.8910   81.8110   22.2610 S   0  0  0  0  0  0  0  0  0  0  0  0
   52.5960   81.3850   21.0750 O   0  0  0  0  0  0  0  0  0  0  0  0
   51.8550   83.1910   22.6860 O   0  0  0  0  0  0  0  0  0  0  0  0
   52.3710   80.7920   23.6240 C   0  0  0  0  0  0  0  0  0  0  0  0
   52.2250   81.2670   24.9270 C   0  0  0  0  0  0  0  0  0  0  0  0
   52.6300   80.4680   26.0010 C   0  0  0  0  0  0  0  0  0  0  0  0
   53.1910   79.1950   25.7880 C   0  0  0  0  0  0  0  0  0  0  0  0
   53.6170   78.3580   26.9210 C   0  0  0  0  0  0  0  0  0  0  0  0
   52.9350   77.1740   27.2420 C   0  0  0  0  0  0  0  0  0  0  0  0
   53.3360   76.3830   28.3200 C   0  0  0  0  0  0  0  0  0  0  0  0
   54.4300   76.7600   29.0960 C   0  0  0  0  0  0  0  0  0  0  0  0
   55.1370   77.9310   28.7990 C   0  0  0  0  0  0  0  0  0  0  0  0
   56.3080   78.3570   29.6490 C   0  0  0  0  0  0  0  0  0  0  0  0
   57.0790   79.4530   28.9740 C   0  0  0  0  0  0  0  0  0  0  0  0
   58.5120   79.7380   29.3480 C   0  0  0  0  0  0  0  0  0  0  0  0
   58.1950   79.1070   28.0200 C   0  0  0  0  0  0  0  0  0  0  0  0
   54.7190   78.7220   27.7160 C   0  0  0  0  0  0  0  0  0  0  0  0
   53.3380   78.7470   24.4630 C   0  0  0  0  0  0  0  0  0  0  0  0
   52.9360   79.5380   23.3830 C   0  0  0  0  0  0  0  0  0  0  0  0
   49.7470   81.5770   22.8700 H   0  0  0  0  0  0  0  0  0  0  0  0
   50.2460   80.3760   21.7600 H   0  0  0  0  0  0  0  0  0  0  0  0
   51.7945   82.2628   25.1087 H   0  0  0  0  0  0  0  0  0  0  0  0
   52.5081   80.8406   27.0288 H   0  0  0  0  0  0  0  0  0  0  0  0
   52.0714   76.8647   26.6349 H   0  0  0  0  0  0  0  0  0  0  0  0
   52.7870   75.4599   28.5574 H   0  0  0  0  0  0  0  0  0  0  0  0
   54.7396   76.1344   29.9462 H   0  0  0  0  0  0  0  0  0  0  0  0
   55.9376   78.7200   30.6190 H   0  0  0  0  0  0  0  0  0  0  0  0
   56.9733   77.4932   29.7950 H   0  0  0  0  0  0  0  0  0  0  0  0
   56.1600   80.0553   28.9229 H   0  0  0  0  0  0  0  0  0  0  0  0
   58.8728   80.7762   29.3912 H   0  0  0  0  0  0  0  0  0  0  0  0
   59.1602   79.4770   30.1976 H   0  0  0  0  0  0  0  0  0  0  0  0
   58.3240   79.6840   27.0924 H   0  0  0  0  0  0  0  0  0  0  0  0
   58.5155   78.1939   27.4970 H   0  0  0  0  0  0  0  0  0  0  0  0
   55.2662   79.6477   27.4842 H   0  0  0  0  0  0  0  0  0  0  0  0
   53.7772   77.7565   24.2732 H   0  0  0  0  0  0  0  0  0  0  0  0
   53.0636   79.1758   22.3522 H   0  0  0  0  0  0  0  0  0  0  0  0
  1  2  1  0
  2  3  2  0
  2  4  2  0
  2  5  1  0
  5  6  1  0
  6  7  2  0
  7  8  1  0
  8  9  1  0
  9 10  1  0
 10 11  2  0
 11 12  1  0
 12 13  2  0
 13 14  1  0
 14 15  1  0
 15 16  1  0
 16 17  1  0
 13 18  1  0
  8 19  2  0
 19 20  1  0
 20  5  2  0
 18  9  2  0
 17 15  1  0
  1 21  1  0
  1 22  1  0
  6 23  1  0
  7 24  1  0
 10 25  1  0
 11 26  1  0
 12 27  1  0
 14 28  1  0
 14 29  1  0
 15 30  1  0
 16 31  1  0
 16 32  1  0
 17 33  1  0
 17 34  1  0
 18 35  1  0
 19 36  1  0
 20 37  1  0
M  END
>  <meeko>  (1) 
{"is_sidechain": false}

>  <smiles>  (1) 
NS(=O)(=O)c1ccc(-c2cccc(CC3CC3)c2)cc1

>  <vina_score>  (1) 
-8.457

>  <job_id>  (1) 
a311a8bdff95517b

$$$$
