
     RDKit          3D

 47 49  0  0  0  0  0  0  0  0999 V2000
   52.8030   77.1640   27.3310 C   0  0  0  0  0  0  0  0  0  0  0  0
   54.0150   77.3660   28.1690 C   0  0  0  0  0  0  0  0  0  0  0  0
   54.4070   76.5430   29.1180 N   0  0  0  0  0  0  0  0  0  0  0  0
   55.5600   77.0740   29.6160 C   0  0  0  0  0  0  0  0  0  0  0  0
   55.8970   78.2490   28.9730 C   0  0  0  0  0  0  0  0  0  0  0  0
   57.0490   79.1020   29.2170 C   0  0  0  0  0  0  0  0  0  0  0  0
   57.8150   79.5880   28.1560 C   0  0  0  0  0  0  0  0  0  0  0  0
   58.9350   80.3930   28.3950 C   0  0  0  0  0  0  0  0  0  0  0  0
   59.3190   80.7030   29.7010 C   0  0  0  0  0  0  0  0  0  0  0  0
   60.4240   81.5170   30.0230 N   0  0  0  0  0  0  0  0  0  0  0  0
   60.4100   82.8570   30.3500 C   0  0  0  0  0  0  0  0  0  0  0  0
   59.4270   83.5880   30.2700 O   0  0  0  0  0  0  0  0  0  0  0  0
   61.6430   83.3440   30.7880 N   0  0  0  0  0  0  0  0  0  0  0  0
   62.7900   82.4770   31.0200 C   0  0  0  0  0  0  0  0  0  0  0  0
   63.9500   83.1350   31.7480 C   0  0  0  0  0  0  0  0  0  0  0  0
   64.0850   84.3940   32.0030 N   0  0  0  0  0  0  0  0  0  0  0  0
   63.0000   85.2620   31.5160 C   0  0  0  0  0  0  0  0  0  0  0  0
   61.6350   84.5810   31.5610 C   0  0  0  0  0  0  0  0  0  0  0  0
   58.5580   80.2030   30.7650 C   0  0  0  0  0  0  0  0  0  0  0  0
   57.4370   79.4020   30.5260 C   0  0  0  0  0  0  0  0  0  0  0  0
   54.8830   78.4420   28.0520 N   0  0  0  0  0  0  0  0  0  0  0  0
   54.7090   79.5440   27.1040 C   0  0  0  0  0  0  0  0  0  0  0  0
   54.4350   79.1050   25.6640 C   0  0  0  0  0  0  0  0  0  0  0  0
   53.6820   80.5660   27.5910 C   0  0  0  0  0  0  0  0  0  0  0  0
   51.9278   77.0181   27.9812 H   0  0  0  0  0  0  0  0  0  0  0  0
   52.6447   78.0482   26.6960 H   0  0  0  0  0  0  0  0  0  0  0  0
   52.9400   76.2763   26.6960 H   0  0  0  0  0  0  0  0  0  0  0  0
   56.1484   76.6228   30.4285 H   0  0  0  0  0  0  0  0  0  0  0  0
   57.5358   79.3360   27.1223 H   0  0  0  0  0  0  0  0  0  0  0  0
   59.5169   80.7843   27.5475 H   0  0  0  0  0  0  0  0  0  0  0  0
   61.3260   81.1440   29.7770 H   0  0  0  0  0  0  0  0  0  0  0  0
   62.4537   81.6177   31.6187 H   0  0  0  0  0  0  0  0  0  0  0  0
   63.1690   82.1930   30.0272 H   0  0  0  0  0  0  0  0  0  0  0  0
   64.7569   82.4717   32.0930 H   0  0  0  0  0  0  0  0  0  0  0  0
   62.9635   86.1650   32.1431 H   0  0  0  0  0  0  0  0  0  0  0  0
   63.2154   85.5047   30.4650 H   0  0  0  0  0  0  0  0  0  0  0  0
   61.3822   84.3504   32.6064 H   0  0  0  0  0  0  0  0  0  0  0  0
   60.8888   85.2619   31.1256 H   0  0  0  0  0  0  0  0  0  0  0  0
   58.8451   80.4429   31.7994 H   0  0  0  0  0  0  0  0  0  0  0  0
   56.8573   79.0058   31.3727 H   0  0  0  0  0  0  0  0  0  0  0  0
   55.6898   80.0410   27.0704 H   0  0  0  0  0  0  0  0  0  0  0  0
   53.8526   78.1719   25.6697 H   0  0  0  0  0  0  0  0  0  0  0  0
   53.8658   79.8893   25.1436 H   0  0  0  0  0  0  0  0  0  0  0  0
   55.3896   78.9382   25.1436 H   0  0  0  0  0  0  0  0  0  0  0  0
   53.6699   80.5781   28.6909 H   0  0  0  0  0  0  0  0  0  0  0  0
   53.9521   81.5643   27.2163 H   0  0  0  0  0  0  0  0  0  0  0  0
   52.6850   80.2911   27.2163 H   0  0  0  0  0  0  0  0  0  0  0  0
  1  2  1  0
  2  3  2  0
  3  4  1  0
  4  5  2  0
  5  6  1  0
  6  7  1  0
  7  8  2  0
  8  9  1  0
  9 10  1  0
 10 11  1  0
 11 12  2  0
 11 13  1  0
 13 14  1  0
 14 15  1  0
 15 16  2  0
 16 17  1  0
 17 18  1  0
  9 19  2  0
 19 20  1  0
  5 21  1  0
 21 22  1  0
 22 23  1  0
 22 24  1  0
 21  2  1  0
 20  6  2  0
 18 13  1  0
  1 25  1  0
  1 26  1  0
  1 27  1  0
  4 28  1  0
  7 29  1  0
  8 30  1  0
 10 31  1  0
 14 32  1  0
 14 33  1  0
 15 34  1  0
 17 35  1  0
 17 36  1  0
 18 37  1  0
 18 38  1  0
 19 39  1  0
 20 40  1  0
 22 41  1  0
 23 42  1  0
 23 43  1  0
 23 44  1  0
 24 45  1  0
 24 46  1  0
 24 47  1  0
M  END
>  <meeko>  (1) 
{"is_sidechain": false}

>  <smiles>  (1) 
Cc1ncc(-c2ccc(NC(=O)N3CC=NCC3)cc2)n1C(C)C

>  <vina_score>  (1) 
-7.623

>  <job_id>  (1) 
a337b216c5948ef2

$$$$
