
     RDKit          3D

 72 75  0  0  0  0  0  0  0  0999 V2000
   64.2220   81.6450   31.0210 C   0  0  0  0  0  0  0  0  0  0  0  0
   63.2120   82.6450   31.5390 C   0  0  0  0  0  0  0  0  0  0  0  0
   62.2020   83.0460   30.7370 C   0  0  0  0  0  0  0  0  0  0  0  0
   61.1060   84.0390   31.0250 C   0  0  0  0  0  0  0  0  0  0  0  0
   59.8940   83.3110   31.5900 C   0  0  0  0  0  0  0  0  0  0  0  0
   59.3760   83.6880   32.6450 O   0  0  0  0  0  0  0  0  0  0  0  0
   59.3020   82.1400   30.8730 C   0  0  0  0  0  0  0  0  0  0  0  0
   59.0920   82.1010   29.4940 C   0  0  0  0  0  0  0  0  0  0  0  0
   58.5420   80.9600   28.8940 C   0  0  0  0  0  0  0  0  0  0  0  0
   58.1860   79.8280   29.6430 C   0  0  0  0  0  0  0  0  0  0  0  0
   57.6300   78.7330   28.9750 N   0  0  0  0  0  0  0  0  0  0  0  0
   56.3300   78.2990   28.7410 C   0  0  0  0  0  0  0  0  0  0  0  0
   55.7090   77.4300   29.5560 N   0  0  0  0  0  0  0  0  0  0  0  0
   54.4480   77.0670   29.2390 C   0  0  0  0  0  0  0  0  0  0  0  0
   53.7820   77.5480   28.1460 C   0  0  0  0  0  0  0  0  0  0  0  0
   52.5270   77.1710   27.8710 F   0  0  0  0  0  0  0  0  0  0  0  0
   54.4840   78.4420   27.3700 C   0  0  0  0  0  0  0  0  0  0  0  0
   53.9390   79.0330   26.1570 C   0  0  0  0  0  0  0  0  0  0  0  0
   53.4480   78.3890   25.0400 C   0  0  0  0  0  0  0  0  0  0  0  0
   52.9810   79.2770   24.1190 N   0  0  0  0  0  0  0  0  0  0  0  0
   53.2000   80.4750   24.6230 C   0  0  0  0  0  0  0  0  0  0  0  0
   52.7990   81.7310   23.9390 C   0  0  0  0  0  0  0  0  0  0  0  0
   53.8290   80.3830   25.8530 N   0  0  0  0  0  0  0  0  0  0  0  0
   54.3670   81.4780   26.6620 C   0  0  0  0  0  0  0  0  0  0  0  0
   55.5610   82.1620   25.9940 C   0  0  0  0  0  0  0  0  0  0  0  0
   53.3110   82.4800   27.1260 C   0  0  0  0  0  0  0  0  0  0  0  0
   55.7510   78.8210   27.6460 N   0  0  0  0  0  0  0  0  0  0  0  0
   58.3960   79.8800   31.0220 C   0  0  0  0  0  0  0  0  0  0  0  0
   58.9510   81.0160   31.6300 C   0  0  0  0  0  0  0  0  0  0  0  0
   63.3230   83.2200   32.8350 C   0  0  0  0  0  0  0  0  0  0  0  0
   63.9450   84.3660   33.2760 C   0  0  0  0  0  0  0  0  0  0  0  0
   63.7610   84.5350   34.6170 N   0  0  0  0  0  0  0  0  0  0  0  0
   63.0860   83.4800   35.0310 C   0  0  0  0  0  0  0  0  0  0  0  0
   62.6810   83.2780   36.4450 C   0  0  0  0  0  0  0  0  0  0  0  0
   62.8110   82.6220   33.9770 N   0  0  0  0  0  0  0  0  0  0  0  0
   62.1450   81.3190   34.0310 C   0  0  0  0  0  0  0  0  0  0  0  0
   60.7800   81.3490   34.7180 C   0  0  0  0  0  0  0  0  0  0  0  0
   63.0550   80.2320   34.6030 C   0  0  0  0  0  0  0  0  0  0  0  0
   64.7192   81.1528   31.8698 H   0  0  0  0  0  0  0  0  0  0  0  0
   63.7087   80.8893   30.4082 H   0  0  0  0  0  0  0  0  0  0  0  0
   64.9725   82.1658   30.4082 H   0  0  0  0  0  0  0  0  0  0  0  0
   62.1760   82.5853   29.7385 H   0  0  0  0  0  0  0  0  0  0  0  0
   61.4640   84.7774   31.7575 H   0  0  0  0  0  0  0  0  0  0  0  0
   60.8233   84.5519   30.0939 H   0  0  0  0  0  0  0  0  0  0  0  0
   59.3594   82.9700   28.8748 H   0  0  0  0  0  0  0  0  0  0  0  0
   58.3850   80.9516   27.8053 H   0  0  0  0  0  0  0  0  0  0  0  0
   58.2750   78.0470   28.6080 H   0  0  0  0  0  0  0  0  0  0  0  0
   53.9308   76.3488   29.8922 H   0  0  0  0  0  0  0  0  0  0  0  0
   53.4353   77.2968   24.9098 H   0  0  0  0  0  0  0  0  0  0  0  0
   52.5548   82.4960   24.6907 H   0  0  0  0  0  0  0  0  0  0  0  0
   53.6282   82.0867   23.3099 H   0  0  0  0  0  0  0  0  0  0  0  0
   51.9170   81.5404   23.3099 H   0  0  0  0  0  0  0  0  0  0  0  0
   54.7397   81.0022   27.5811 H   0  0  0  0  0  0  0  0  0  0  0  0
   56.2402   82.5511   26.7668 H   0  0  0  0  0  0  0  0  0  0  0  0
   56.0972   81.4341   25.3674 H   0  0  0  0  0  0  0  0  0  0  0  0
   55.2043   82.9927   25.3674 H   0  0  0  0  0  0  0  0  0  0  0  0
   53.2860   82.5037   28.2255 H   0  0  0  0  0  0  0  0  0  0  0  0
   53.5616   83.4804   26.7433 H   0  0  0  0  0  0  0  0  0  0  0  0
   52.3251   82.1773   26.7433 H   0  0  0  0  0  0  0  0  0  0  0  0
   58.1214   79.0147   31.6432 H   0  0  0  0  0  0  0  0  0  0  0  0
   59.1128   81.0236   32.7180 H   0  0  0  0  0  0  0  0  0  0  0  0
   64.5142   85.0535   32.6331 H   0  0  0  0  0  0  0  0  0  0  0  0
   63.4649   83.6690   37.1104 H   0  0  0  0  0  0  0  0  0  0  0  0
   61.7382   83.8114   36.6361 H   0  0  0  0  0  0  0  0  0  0  0  0
   62.5399   82.2040   36.6361 H   0  0  0  0  0  0  0  0  0  0  0  0
   61.9360   81.0550   32.9838 H   0  0  0  0  0  0  0  0  0  0  0  0
   60.9186   81.3460   35.8092 H   0  0  0  0  0  0  0  0  0  0  0  0
   60.2393   82.2592   34.4196 H   0  0  0  0  0  0  0  0  0  0  0  0
   60.1998   80.4634   34.4196 H   0  0  0  0  0  0  0  0  0  0  0  0
   63.0242   80.2688   35.7020 H   0  0  0  0  0  0  0  0  0  0  0  0
   62.7092   79.2460   34.2593 H   0  0  0  0  0  0  0  0  0  0  0  0
   64.0865   80.3990   34.2593 H   0  0  0  0  0  0  0  0  0  0  0  0
  1  2  1  0
  2  3  2  3
  3  4  1  0
  4  5  1  0
  5  6  2  0
  5  7  1  0
  7  8  1  0
  8  9  2  0
  9 10  1  0
 10 11  1  0
 11 12  1  0
 12 13  2  0
 13 14  1  0
 14 15  2  0
 15 16  1  0
 15 17  1  0
 17 18  1  0
 18 19  2  0
 19 20  1  0
 20 21  2  0
 21 22  1  0
 21 23  1  0
 23 24  1  0
 24 25  1  0
 24 26  1  0
 17 27  2  0
 10 28  2  0
 28 29  1  0
  2 30  1  0
 30 31  2  0
 31 32  1  0
 32 33  2  0
 33 34  1  0
 33 35  1  0
 35 36  1  0
 36 37  1  0
 36 38  1  0
 29  7  2  0
 35 30  1  0
 27 12  1  0
 23 18  1  0
  1 39  1  0
  1 40  1  0
  1 41  1  0
  3 42  1  0
  4 43  1  0
  4 44  1  0
  8 45  1  0
  9 46  1  0
 11 47  1  0
 14 48  1  0
 19 49  1  0
 22 50  1  0
 22 51  1  0
 22 52  1  0
 24 53  1  0
 25 54  1  0
 25 55  1  0
 25 56  1  0
 26 57  1  0
 26 58  1  0
 26 59  1  0
 28 60  1  0
 29 61  1  0
 31 62  1  0
 34 63  1  0
 34 64  1  0
 34 65  1  0
 36 66  1  0
 37 67  1  0
 37 68  1  0
 37 69  1  0
 38 70  1  0
 38 71  1  0
 38 72  1  0
M  END
>  <meeko>  (1) 
{"is_sidechain": false}

>  <smiles>  (1) 
CC(=CCC(=O)c1ccc(Nc2ncc(F)c(-c3cnc(C)n3C(C)C)n2)cc1)c1cnc(C)n1C(C)C

>  <vina_score>  (1) 
-9.209

>  <job_id>  (1) 
a393d430f40ad87d

$$$$
