
     RDKit          3D

 48 51  0  0  0  0  0  0  0  0999 V2000
   59.9010   82.0590   34.3270 O   0  0  0  0  0  0  0  0  0  0  0  0
   59.9120   82.5510   33.2010 C   0  0  0  0  0  0  0  0  0  0  0  0
   60.4990   83.9010   33.0420 C   0  0  0  0  0  0  0  0  0  0  0  0
   61.8900   84.0280   32.9840 C   0  0  0  0  0  0  0  0  0  0  0  0
   62.4660   85.2910   32.8490 C   0  0  0  0  0  0  0  0  0  0  0  0
   61.6540   86.4250   32.7900 C   0  0  0  0  0  0  0  0  0  0  0  0
   60.2660   86.3010   32.8750 C   0  0  0  0  0  0  0  0  0  0  0  0
   59.6850   85.0390   33.0080 C   0  0  0  0  0  0  0  0  0  0  0  0
   59.4050   81.9010   32.0800 N   0  0  0  0  0  0  0  0  0  0  0  0
   59.6970   82.2890   30.6910 C   0  0  0  0  0  0  0  0  0  0  0  0
   59.6860   81.0960   29.7250 C   0  0  0  0  0  0  0  0  0  0  0  0
   58.4440   80.3270   29.8010 N   0  0  0  0  0  0  0  0  0  0  0  0
   58.0180   79.6380   28.6600 C   0  0  0  0  0  0  0  0  0  0  0  0
   58.7180   79.5880   27.6450 O   0  0  0  0  0  0  0  0  0  0  0  0
   56.6900   78.9340   28.6320 C   0  0  0  0  0  0  0  0  0  0  0  0
   56.4620   77.9080   29.5490 C   0  0  0  0  0  0  0  0  0  0  0  0
   55.2460   77.2270   29.5120 C   0  0  0  0  0  0  0  0  0  0  0  0
   54.3060   77.5790   28.5480 C   0  0  0  0  0  0  0  0  0  0  0  0
   54.6170   78.6110   27.6640 C   0  0  0  0  0  0  0  0  0  0  0  0
   55.7850   79.2940   27.6840 N   0  0  0  0  0  0  0  0  0  0  0  0
   53.5730   78.9740   26.6430 C   0  0  0  0  0  0  0  0  0  0  0  0
   52.9540   77.6890   26.0800 C   0  0  0  0  0  0  0  0  0  0  0  0
   52.5560   76.6580   27.0580 N   0  0  0  0  0  0  0  0  0  0  0  0
   52.9470   76.9490   28.4410 C   0  0  0  0  0  0  0  0  0  0  0  0
   57.8100   80.2320   31.1240 C   0  0  0  0  0  0  0  0  0  0  0  0
   58.7580   80.6030   32.2740 C   0  0  0  0  0  0  0  0  0  0  0  0
   62.5284   83.1343   33.0447 H   0  0  0  0  0  0  0  0  0  0  0  0
   63.5596   85.3935   32.7890 H   0  0  0  0  0  0  0  0  0  0  0  0
   62.1094   87.4198   32.6761 H   0  0  0  0  0  0  0  0  0  0  0  0
   59.6303   87.1979   32.8371 H   0  0  0  0  0  0  0  0  0  0  0  0
   58.5923   84.9392   33.0857 H   0  0  0  0  0  0  0  0  0  0  0  0
   58.9385   83.0146   30.3620 H   0  0  0  0  0  0  0  0  0  0  0  0
   60.7089   82.7200   30.6734 H   0  0  0  0  0  0  0  0  0  0  0  0
   59.8062   81.4720   28.6983 H   0  0  0  0  0  0  0  0  0  0  0  0
   60.5119   80.4273   30.0092 H   0  0  0  0  0  0  0  0  0  0  0  0
   57.2297   77.6403   30.2899 H   0  0  0  0  0  0  0  0  0  0  0  0
   55.0330   76.4243   30.2333 H   0  0  0  0  0  0  0  0  0  0  0  0
   52.7896   79.5830   27.1177 H   0  0  0  0  0  0  0  0  0  0  0  0
   54.0358   79.5503   25.8284 H   0  0  0  0  0  0  0  0  0  0  0  0
   52.0558   77.9734   25.5122 H   0  0  0  0  0  0  0  0  0  0  0  0
   53.7507   77.2245   25.4804 H   0  0  0  0  0  0  0  0  0  0  0  0
   52.9740   75.7720   26.7790 H   0  0  0  0  0  0  0  0  0  0  0  0
   52.2070   77.6363   28.8769 H   0  0  0  0  0  0  0  0  0  0  0  0
   52.9860   75.9908   28.9798 H   0  0  0  0  0  0  0  0  0  0  0  0
   56.9467   80.9132   31.1483 H   0  0  0  0  0  0  0  0  0  0  0  0
   57.5113   79.1835   31.2702 H   0  0  0  0  0  0  0  0  0  0  0  0
   58.1800   80.6348   33.2094 H   0  0  0  0  0  0  0  0  0  0  0  0
   59.5500   79.8404   32.3090 H   0  0  0  0  0  0  0  0  0  0  0  0
  1  2  2  0
  2  3  1  0
  3  4  2  0
  4  5  1  0
  5  6  2  0
  6  7  1  0
  7  8  2  0
  2  9  1  0
  9 10  1  0
 10 11  1  0
 11 12  1  0
 12 13  1  0
 13 14  2  0
 13 15  1  0
 15 16  1  0
 16 17  2  0
 17 18  1  0
 18 19  2  0
 19 20  1  0
 19 21  1  0
 21 22  1  0
 22 23  1  0
 23 24  1  0
 12 25  1  0
 25 26  1  0
  8  3  1  0
 26  9  1  0
 20 15  2  0
 24 18  1  0
  4 27  1  0
  5 28  1  0
  6 29  1  0
  7 30  1  0
  8 31  1  0
 10 32  1  0
 10 33  1  0
 11 34  1  0
 11 35  1  0
 16 36  1  0
 17 37  1  0
 21 38  1  0
 21 39  1  0
 22 40  1  0
 22 41  1  0
 23 42  1  0
 24 43  1  0
 24 44  1  0
 25 45  1  0
 25 46  1  0
 26 47  1  0
 26 48  1  0
M  END
>  <meeko>  (1) 
{"is_sidechain": false}

>  <smiles>  (1) 
O=C(c1ccccc1)N1CCN(C(=O)c2ccc3c(n2)CCNC3)CC1

>  <vina_score>  (1) 
-7.645

>  <job_id>  (1) 
a3ac9d1d465c8a8c

$$$$
