
     RDKit          3D

 40 41  0  0  0  0  0  0  0  0999 V2000
   59.6850   81.4110   29.2460 C   0  0  0  0  0  0  0  0  0  0  0  0
   58.8840   80.1220   29.1520 C   0  0  0  0  0  0  0  0  0  0  0  0
   58.0900   80.0920   27.9380 N   0  0  0  0  0  0  0  0  0  0  0  0
   56.8520   79.4800   28.0200 C   0  0  0  0  0  0  0  0  0  0  0  0
   56.5030   78.7780   29.1110 N   0  0  0  0  0  0  0  0  0  0  0  0
   55.2660   78.2380   29.1270 C   0  0  0  0  0  0  0  0  0  0  0  0
   54.3820   78.3560   28.0890 C   0  0  0  0  0  0  0  0  0  0  0  0
   53.1660   77.8010   28.1420 F   0  0  0  0  0  0  0  0  0  0  0  0
   54.8390   79.0670   27.0020 C   0  0  0  0  0  0  0  0  0  0  0  0
   54.0140   79.3120   25.8340 C   0  0  0  0  0  0  0  0  0  0  0  0
   53.5470   78.3580   24.9560 C   0  0  0  0  0  0  0  0  0  0  0  0
   52.9350   78.9270   23.8870 N   0  0  0  0  0  0  0  0  0  0  0  0
   52.9980   80.2280   24.0830 C   0  0  0  0  0  0  0  0  0  0  0  0
   52.5530   81.1950   23.0470 C   0  0  0  0  0  0  0  0  0  0  0  0
   53.5340   80.5250   25.3390 N   0  0  0  0  0  0  0  0  0  0  0  0
   53.6120   81.8630   25.9810 C   0  0  0  0  0  0  0  0  0  0  0  0
   55.0200   82.4500   25.7690 C   0  0  0  0  0  0  0  0  0  0  0  0
   53.3220   81.8330   27.5050 C   0  0  0  0  0  0  0  0  0  0  0  0
   52.5600   82.8540   25.4170 C   0  0  0  0  0  0  0  0  0  0  0  0
   56.0610   79.6400   26.9510 N   0  0  0  0  0  0  0  0  0  0  0  0
   59.8443   81.6674   30.3038 H   0  0  0  0  0  0  0  0  0  0  0  0
   60.6579   81.2750   28.7511 H   0  0  0  0  0  0  0  0  0  0  0  0
   59.1322   82.2231   28.7511 H   0  0  0  0  0  0  0  0  0  0  0  0
   59.5764   79.2673   29.1505 H   0  0  0  0  0  0  0  0  0  0  0  0
   58.2059   80.0663   30.0164 H   0  0  0  0  0  0  0  0  0  0  0  0
   58.5480   79.6970   27.1240 H   0  0  0  0  0  0  0  0  0  0  0  0
   54.9529   77.6751   30.0187 H   0  0  0  0  0  0  0  0  0  0  0  0
   53.6564   77.2734   25.1031 H   0  0  0  0  0  0  0  0  0  0  0  0
   52.1408   82.0908   23.5345 H   0  0  0  0  0  0  0  0  0  0  0  0
   53.4102   81.4806   22.4197 H   0  0  0  0  0  0  0  0  0  0  0  0
   51.7784   80.7297   22.4197 H   0  0  0  0  0  0  0  0  0  0  0  0
   55.4870   82.6447   26.7457 H   0  0  0  0  0  0  0  0  0  0  0  0
   55.6349   81.7333   25.2049 H   0  0  0  0  0  0  0  0  0  0  0  0
   54.9437   83.3913   25.2049 H   0  0  0  0  0  0  0  0  0  0  0  0
   54.2667   81.9307   28.0600 H   0  0  0  0  0  0  0  0  0  0  0  0
   52.6544   82.6669   27.7677 H   0  0  0  0  0  0  0  0  0  0  0  0
   52.8393   80.8801   27.7677 H   0  0  0  0  0  0  0  0  0  0  0  0
   52.0369   83.3467   26.2498 H   0  0  0  0  0  0  0  0  0  0  0  0
   53.0644   83.6127   24.8006 H   0  0  0  0  0  0  0  0  0  0  0  0
   51.8327   82.3052   24.8006 H   0  0  0  0  0  0  0  0  0  0  0  0
  1  2  1  0
  2  3  1  0
  3  4  1  0
  4  5  2  0
  5  6  1  0
  6  7  2  0
  7  8  1  0
  7  9  1  0
  9 10  1  0
 10 11  2  0
 11 12  1  0
 12 13  2  0
 13 14  1  0
 13 15  1  0
 15 16  1  0
 16 17  1  0
 16 18  1  0
 16 19  1  0
  9 20  2  0
 20  4  1  0
 15 10  1  0
  1 21  1  0
  1 22  1  0
  1 23  1  0
  2 24  1  0
  2 25  1  0
  3 26  1  0
  6 27  1  0
 11 28  1  0
 14 29  1  0
 14 30  1  0
 14 31  1  0
 17 32  1  0
 17 33  1  0
 17 34  1  0
 18 35  1  0
 18 36  1  0
 18 37  1  0
 19 38  1  0
 19 39  1  0
 19 40  1  0
M  END
>  <meeko>  (1) 
{"is_sidechain": false}

>  <smiles>  (1) 
CCNc1ncc(F)c(-c2cnc(C)n2C(C)(C)C)n1

>  <vina_score>  (1) 
-7.079

>  <job_id>  (1) 
a3b63ad464f10708

$$$$
