
     RDKit          3D

 43 44  0  0  0  0  0  0  0  0999 V2000
   52.8530   81.3570   23.2200 C   0  0  0  0  0  0  0  0  0  0  0  0
   53.2870   80.2840   24.1530 C   0  0  0  0  0  0  0  0  0  0  0  0
   53.1370   78.9980   23.9220 N   0  0  0  0  0  0  0  0  0  0  0  0
   53.6850   78.3650   24.9970 C   0  0  0  0  0  0  0  0  0  0  0  0
   54.1950   79.2620   25.9190 C   0  0  0  0  0  0  0  0  0  0  0  0
   54.8750   78.9640   27.1730 C   0  0  0  0  0  0  0  0  0  0  0  0
   56.1310   79.4520   27.2700 N   0  0  0  0  0  0  0  0  0  0  0  0
   56.8140   79.1790   28.3920 C   0  0  0  0  0  0  0  0  0  0  0  0
   58.0920   79.6920   28.4290 N   0  0  0  0  0  0  0  0  0  0  0  0
   58.4930   80.7250   29.3860 C   0  0  0  0  0  0  0  0  0  0  0  0
   58.3280   80.2500   30.8360 C   0  0  0  0  0  0  0  0  0  0  0  0
   59.9960   80.9820   29.1450 C   0  0  0  0  0  0  0  0  0  0  0  0
   57.7380   82.0410   29.1450 C   0  0  0  0  0  0  0  0  0  0  0  0
   56.3140   78.4680   29.4110 N   0  0  0  0  0  0  0  0  0  0  0  0
   55.0630   77.9850   29.2710 C   0  0  0  0  0  0  0  0  0  0  0  0
   54.2940   78.2010   28.1600 C   0  0  0  0  0  0  0  0  0  0  0  0
   53.0540   77.7040   28.0690 F   0  0  0  0  0  0  0  0  0  0  0  0
   53.8950   80.5040   25.3820 N   0  0  0  0  0  0  0  0  0  0  0  0
   54.0890   81.8330   25.9650 C   0  0  0  0  0  0  0  0  0  0  0  0
   53.3640   82.0670   27.2930 C   0  0  0  0  0  0  0  0  0  0  0  0
   55.5600   82.2400   26.0230 C   0  0  0  0  0  0  0  0  0  0  0  0
   52.5019   82.2250   23.7973 H   0  0  0  0  0  0  0  0  0  0  0  0
   53.7006   81.6567   22.5862 H   0  0  0  0  0  0  0  0  0  0  0  0
   52.0354   80.9832   22.5862 H   0  0  0  0  0  0  0  0  0  0  0  0
   53.7180   77.2721   25.1174 H   0  0  0  0  0  0  0  0  0  0  0  0
   58.3470   79.8740   27.4640 H   0  0  0  0  0  0  0  0  0  0  0  0
   58.6101   81.0621   31.5222 H   0  0  0  0  0  0  0  0  0  0  0  0
   57.2794   79.9684   31.0125 H   0  0  0  0  0  0  0  0  0  0  0  0
   58.9762   79.3790   31.0125 H   0  0  0  0  0  0  0  0  0  0  0  0
   60.5126   81.0703   30.1121 H   0  0  0  0  0  0  0  0  0  0  0  0
   60.4246   80.1441   28.5756 H   0  0  0  0  0  0  0  0  0  0  0  0
   60.1218   81.9147   28.5756 H   0  0  0  0  0  0  0  0  0  0  0  0
   57.4768   82.4962   30.1117 H   0  0  0  0  0  0  0  0  0  0  0  0
   58.3773   82.7315   28.5754 H   0  0  0  0  0  0  0  0  0  0  0  0
   56.8192   81.8376   28.5754 H   0  0  0  0  0  0  0  0  0  0  0  0
   54.6392   77.3871   30.0913 H   0  0  0  0  0  0  0  0  0  0  0  0
   53.5915   82.5135   25.2583 H   0  0  0  0  0  0  0  0  0  0  0  0
   54.0465   81.8467   28.1271 H   0  0  0  0  0  0  0  0  0  0  0  0
   53.0382   83.1159   27.3530 H   0  0  0  0  0  0  0  0  0  0  0  0
   52.4864   81.4065   27.3530 H   0  0  0  0  0  0  0  0  0  0  0  0
   55.8752   82.3272   27.0733 H   0  0  0  0  0  0  0  0  0  0  0  0
   56.1716   81.4773   25.5188 H   0  0  0  0  0  0  0  0  0  0  0  0
   55.6926   83.2086   25.5188 H   0  0  0  0  0  0  0  0  0  0  0  0
  1  2  1  0
  2  3  2  0
  3  4  1  0
  4  5  2  0
  5  6  1  0
  6  7  2  0
  7  8  1  0
  8  9  1  0
  9 10  1  0
 10 11  1  0
 10 12  1  0
 10 13  1  0
  8 14  2  0
 14 15  1  0
 15 16  2  0
 16 17  1  0
  5 18  1  0
 18 19  1  0
 19 20  1  0
 19 21  1  0
 18  2  1  0
 16  6  1  0
  1 22  1  0
  1 23  1  0
  1 24  1  0
  4 25  1  0
  9 26  1  0
 11 27  1  0
 11 28  1  0
 11 29  1  0
 12 30  1  0
 12 31  1  0
 12 32  1  0
 13 33  1  0
 13 34  1  0
 13 35  1  0
 15 36  1  0
 19 37  1  0
 20 38  1  0
 20 39  1  0
 20 40  1  0
 21 41  1  0
 21 42  1  0
 21 43  1  0
M  END
>  <meeko>  (1) 
{"is_sidechain": false}

>  <smiles>  (1) 
Cc1ncc(-c2nc(NC(C)(C)C)ncc2F)n1C(C)C

>  <vina_score>  (1) 
-6.606

>  <job_id>  (1) 
a428475514298b7d

$$$$
