
     RDKit          3D

 50 53  0  0  0  0  0  0  0  0999 V2000
   66.4780   84.0980   29.5190 N   0  0  0  0  0  0  0  0  0  0  0  0
   65.5460   84.9940   30.5990 S   0  0  0  0  0  0  0  0  0  0  0  0
   66.4820   85.5510   31.5480 O   0  0  0  0  0  0  0  0  0  0  0  0
   64.6350   85.8090   29.8320 O   0  0  0  0  0  0  0  0  0  0  0  0
   64.6160   83.7180   31.4070 C   0  0  0  0  0  0  0  0  0  0  0  0
   64.7470   83.5260   32.7840 C   0  0  0  0  0  0  0  0  0  0  0  0
   63.9990   82.5260   33.4110 C   0  0  0  0  0  0  0  0  0  0  0  0
   63.1040   81.7350   32.6760 C   0  0  0  0  0  0  0  0  0  0  0  0
   62.3700   80.7130   33.3080 N   0  0  0  0  0  0  0  0  0  0  0  0
   61.1750   80.9200   33.6440 N   0  0  0  0  0  0  0  0  0  0  0  0
   60.5810   82.1830   33.5080 C   0  0  0  0  0  0  0  0  0  0  0  0
   60.6210   83.1700   34.4670 C   0  0  0  0  0  0  0  0  0  0  0  0
   61.1850   83.2350   35.6660 O   0  0  0  0  0  0  0  0  0  0  0  0
   59.9200   84.2360   33.9730 N   0  0  0  0  0  0  0  0  0  0  0  0
   59.3870   83.9320   32.7380 C   0  0  0  0  0  0  0  0  0  0  0  0
   58.5990   84.7130   31.8810 C   0  0  0  0  0  0  0  0  0  0  0  0
   58.2000   84.1470   30.6660 C   0  0  0  0  0  0  0  0  0  0  0  0
   58.5600   82.8460   30.3260 C   0  0  0  0  0  0  0  0  0  0  0  0
   59.3220   82.0700   31.2060 C   0  0  0  0  0  0  0  0  0  0  0  0
   59.6850   80.8060   30.7920 O   0  0  0  0  0  0  0  0  0  0  0  0
   58.5160   80.0020   30.5800 C   0  0  0  0  0  0  0  0  0  0  0  0
   58.5650   79.4820   29.1440 C   0  0  0  0  0  0  0  0  0  0  0  0
   57.1920   79.3240   28.5480 C   0  0  0  0  0  0  0  0  0  0  0  0
   56.3080   78.3570   29.0300 C   0  0  0  0  0  0  0  0  0  0  0  0
   55.0620   78.2400   28.4310 C   0  0  0  0  0  0  0  0  0  0  0  0
   54.6500   79.0040   27.3980 N   0  0  0  0  0  0  0  0  0  0  0  0
   55.5210   79.9300   26.9440 C   0  0  0  0  0  0  0  0  0  0  0  0
   56.7870   80.1240   27.4760 C   0  0  0  0  0  0  0  0  0  0  0  0
   59.7720   82.6220   32.4260 C   0  0  0  0  0  0  0  0  0  0  0  0
   63.0020   81.9300   31.2920 C   0  0  0  0  0  0  0  0  0  0  0  0
   63.7430   82.9290   30.6550 C   0  0  0  0  0  0  0  0  0  0  0  0
   66.8670   84.6550   28.7590 H   0  0  0  0  0  0  0  0  0  0  0  0
   65.9210   83.3140   29.1730 H   0  0  0  0  0  0  0  0  0  0  0  0
   65.4326   84.1561   33.3696 H   0  0  0  0  0  0  0  0  0  0  0  0
   64.1133   82.3575   34.4920 H   0  0  0  0  0  0  0  0  0  0  0  0
   61.2800   82.3120   35.9710 H   0  0  0  0  0  0  0  0  0  0  0  0
   59.7990   85.1100   34.4620 H   0  0  0  0  0  0  0  0  0  0  0  0
   58.3044   85.7368   32.1551 H   0  0  0  0  0  0  0  0  0  0  0  0
   57.5915   84.7398   29.9673 H   0  0  0  0  0  0  0  0  0  0  0  0
   58.2436   82.4257   29.3600 H   0  0  0  0  0  0  0  0  0  0  0  0
   58.5093   79.1572   31.2845 H   0  0  0  0  0  0  0  0  0  0  0  0
   57.6047   80.5957   30.7442 H   0  0  0  0  0  0  0  0  0  0  0  0
   59.1380   80.1922   28.5297 H   0  0  0  0  0  0  0  0  0  0  0  0
   59.0415   78.4907   29.1605 H   0  0  0  0  0  0  0  0  0  0  0  0
   56.5931   77.7021   29.8665 H   0  0  0  0  0  0  0  0  0  0  0  0
   54.3694   77.4797   28.8212 H   0  0  0  0  0  0  0  0  0  0  0  0
   55.2086   80.5674   26.1037 H   0  0  0  0  0  0  0  0  0  0  0  0
   57.4582   80.8914   27.0629 H   0  0  0  0  0  0  0  0  0  0  0  0
   62.3312   81.2896   30.7005 H   0  0  0  0  0  0  0  0  0  0  0  0
   63.6397   83.0922   29.5721 H   0  0  0  0  0  0  0  0  0  0  0  0
  1  2  1  0
  2  3  2  0
  2  4  2  0
  2  5  1  0
  5  6  1  0
  6  7  2  0
  7  8  1  0
  8  9  1  0
  9 10  2  3
 10 11  1  0
 11 12  2  0
 12 13  1  0
 12 14  1  0
 14 15  1  0
 15 16  2  0
 16 17  1  0
 17 18  2  0
 18 19  1  0
 19 20  1  0
 20 21  1  0
 21 22  1  0
 22 23  1  0
 23 24  2  0
 24 25  1  0
 25 26  2  0
 26 27  1  0
 27 28  2  0
 19 29  2  0
  8 30  2  0
 30 31  1  0
 31  5  2  0
 29 11  1  0
 29 15  1  0
 28 23  1  0
  1 32  1  0
  1 33  1  0
  6 34  1  0
  7 35  1  0
 13 36  1  0
 14 37  1  0
 16 38  1  0
 17 39  1  0
 18 40  1  0
 21 41  1  0
 21 42  1  0
 22 43  1  0
 22 44  1  0
 24 45  1  0
 25 46  1  0
 27 47  1  0
 28 48  1  0
 30 49  1  0
 31 50  1  0
M  END
>  <meeko>  (1) 
{"is_sidechain": false}

>  <smiles>  (1) 
NS(=O)(=O)c1ccc(N=Nc2c(O)[nH]c3cccc(OCCc4ccncc4)c23)cc1

>  <vina_score>  (1) 
-6.539

>  <job_id>  (1) 
a446b417c475a131

$$$$
