
     RDKit          3D

 59 62  0  0  0  0  0  0  0  0999 V2000
   52.8780   80.2910   24.3950 C   0  0  0  0  0  0  0  0  0  0  0  0
   52.2400   79.8580   25.5890 O   0  0  0  0  0  0  0  0  0  0  0  0
   53.0210   79.2110   26.5110 C   0  0  0  0  0  0  0  0  0  0  0  0
   52.6390   78.1010   27.2660 C   0  0  0  0  0  0  0  0  0  0  0  0
   53.5250   77.5170   28.1860 C   0  0  0  0  0  0  0  0  0  0  0  0
   54.8130   78.0610   28.3470 C   0  0  0  0  0  0  0  0  0  0  0  0
   55.9350   77.7340   29.1610 C   0  0  0  0  0  0  0  0  0  0  0  0
   56.9440   78.6350   28.8910 C   0  0  0  0  0  0  0  0  0  0  0  0
   58.2080   78.8130   29.3430 N   0  0  0  0  0  0  0  0  0  0  0  0
   58.8970   79.9370   29.6500 C   0  0  0  0  0  0  0  0  0  0  0  0
   59.1890   80.4520   30.9310 C   0  0  0  0  0  0  0  0  0  0  0  0
   59.8880   81.6240   30.7200 C   0  0  0  0  0  0  0  0  0  0  0  0
   60.4440   82.6130   31.6970 C   0  0  0  0  0  0  0  0  0  0  0  0
   60.2080   84.0630   31.2280 C   0  0  0  0  0  0  0  0  0  0  0  0
   61.5630   84.7550   31.3290 C   0  0  0  0  0  0  0  0  0  0  0  0
   62.5530   83.6280   31.0880 C   0  0  1  0  0  0  0  0  0  0  0  0
   63.8530   84.0010   31.5400 O   0  0  0  0  0  0  0  0  0  0  0  0
   64.8580   83.7780   30.6480 C   0  0  0  0  0  0  0  0  0  0  0  0
   65.2130   82.6520   30.3100 O   0  0  0  0  0  0  0  0  0  0  0  0
   65.4300   84.9500   30.1690 N   0  0  0  0  0  0  0  0  0  0  0  0
   66.6400   85.5170   30.7550 C   0  0  0  0  0  0  0  0  0  0  0  0
   64.9390   85.4860   28.8880 C   0  0  0  0  0  0  0  0  0  0  0  0
   64.2970   86.8680   29.0100 C   0  0  0  0  0  0  0  0  0  0  0  0
   66.0550   85.4990   27.8400 C   0  0  0  0  0  0  0  0  0  0  0  0
   61.9560   82.4970   31.9220 C   0  0  0  0  0  0  0  0  0  0  0  0
   59.9700   81.7400   29.3590 N   0  0  0  0  0  0  0  0  0  0  0  0
   59.3550   80.7500   28.6950 N   0  0  0  0  0  0  0  0  0  0  0  0
   56.4660   79.4840   27.9220 N   0  0  0  0  0  0  0  0  0  0  0  0
   55.1720   79.1650   27.5820 C   0  0  0  0  0  0  0  0  0  0  0  0
   54.3010   79.7600   26.6600 C   0  0  0  0  0  0  0  0  0  0  0  0
   53.7635   80.8919   24.6496 H   0  0  0  0  0  0  0  0  0  0  0  0
   53.1865   79.4149   23.8057 H   0  0  0  0  0  0  0  0  0  0  0  0
   52.1778   80.9012   23.8057 H   0  0  0  0  0  0  0  0  0  0  0  0
   51.6314   77.6783   27.1389 H   0  0  0  0  0  0  0  0  0  0  0  0
   53.2149   76.6418   28.7758 H   0  0  0  0  0  0  0  0  0  0  0  0
   55.9879   76.9047   29.8818 H   0  0  0  0  0  0  0  0  0  0  0  0
   58.7640   77.9890   29.5540 H   0  0  0  0  0  0  0  0  0  0  0  0
   58.9154   80.0098   31.9003 H   0  0  0  0  0  0  0  0  0  0  0  0
   59.9116   82.3778   32.6304 H   0  0  0  0  0  0  0  0  0  0  0  0
   59.8472   84.0761   30.1890 H   0  0  0  0  0  0  0  0  0  0  0  0
   59.4471   84.5690   31.8403 H   0  0  0  0  0  0  0  0  0  0  0  0
   61.6633   85.5376   30.5626 H   0  0  0  0  0  0  0  0  0  0  0  0
   61.7156   85.2616   32.2934 H   0  0  0  0  0  0  0  0  0  0  0  0
   62.6885   83.3563   30.0307 H   0  0  0  0  0  0  0  0  0  0  0  0
   66.5669   85.4827   31.8520 H   0  0  0  0  0  0  0  0  0  0  0  0
   67.5137   84.9346   30.4274 H   0  0  0  0  0  0  0  0  0  0  0  0
   66.7515   86.5611   30.4274 H   0  0  0  0  0  0  0  0  0  0  0  0
   64.1409   84.8044   28.5587 H   0  0  0  0  0  0  0  0  0  0  0  0
   64.1779   87.1244   30.0730 H   0  0  0  0  0  0  0  0  0  0  0  0
   64.9401   87.6154   28.5224 H   0  0  0  0  0  0  0  0  0  0  0  0
   63.3110   86.8586   28.5224 H   0  0  0  0  0  0  0  0  0  0  0  0
   67.0321   85.5104   28.3450 H   0  0  0  0  0  0  0  0  0  0  0  0
   65.9778   84.5999   27.2110 H   0  0  0  0  0  0  0  0  0  0  0  0
   65.9569   86.3961   27.2110 H   0  0  0  0  0  0  0  0  0  0  0  0
   62.3271   81.5209   31.5762 H   0  0  0  0  0  0  0  0  0  0  0  0
   62.2282   82.5718   32.9852 H   0  0  0  0  0  0  0  0  0  0  0  0
   60.4230   82.4660   28.8120 H   0  0  0  0  0  0  0  0  0  0  0  0
   56.9840   80.2520   27.5250 H   0  0  0  0  0  0  0  0  0  0  0  0
   54.6136   80.6339   26.0696 H   0  0  0  0  0  0  0  0  0  0  0  0
  1  2  1  0
  2  3  1  0
  3  4  2  0
  4  5  1  0
  5  6  2  0
  6  7  1  0
  7  8  2  0
  8  9  1  0
  9 10  1  0
 10 11  1  0
 11 12  2  0
 12 13  1  0
 13 14  1  0
 14 15  1  0
 15 16  1  0
 16 17  1  0
 17 18  1  0
 18 19  2  0
 18 20  1  0
 20 21  1  0
 20 22  1  0
 22 23  1  0
 22 24  1  0
 16 25  1  0
 12 26  1  0
 26 27  1  0
  8 28  1  0
 28 29  1  0
 29 30  2  0
 30  3  1  0
 29  6  1  0
 27 10  2  0
 25 13  1  0
  1 31  1  0
  1 32  1  0
  1 33  1  0
  4 34  1  0
  5 35  1  0
  7 36  1  0
  9 37  1  0
 11 38  1  0
 13 39  1  0
 14 40  1  0
 14 41  1  0
 15 42  1  0
 15 43  1  0
 16 44  1  6
 21 45  1  0
 21 46  1  0
 21 47  1  0
 22 48  1  0
 23 49  1  0
 23 50  1  0
 23 51  1  0
 24 52  1  0
 24 53  1  0
 24 54  1  0
 25 55  1  0
 25 56  1  0
 26 57  1  0
 28 58  1  0
 30 59  1  0
M  END
>  <meeko>  (1) 
{"is_sidechain": false}

>  <smiles>  (1) 
COc1ccc2cc(Nc3cc(C4CC[C@@H](OC(=O)N(C)C(C)C)C4)[nH]n3)[nH]c2c1

>  <vina_score>  (1) 
-8.216

>  <job_id>  (1) 
a4847468bec30703

$$$$
