
     RDKit          3D

 40 42  0  0  0  0  0  0  0  0999 V2000
   52.7520   81.7790   24.1120 C   0  0  0  0  0  0  0  0  0  0  0  0
   53.1780   80.5260   24.7860 C   0  0  0  0  0  0  0  0  0  0  0  0
   52.9350   79.3270   24.2970 N   0  0  0  0  0  0  0  0  0  0  0  0
   53.4390   78.4440   25.2030 C   0  0  0  0  0  0  0  0  0  0  0  0
   54.0200   79.0900   26.2760 C   0  0  0  0  0  0  0  0  0  0  0  0
   54.6420   78.5140   27.4620 C   0  0  0  0  0  0  0  0  0  0  0  0
   53.9350   77.7200   28.3330 C   0  0  0  0  0  0  0  0  0  0  0  0
   54.6430   77.2640   29.4120 C   0  0  0  0  0  0  0  0  0  0  0  0
   55.9350   77.5640   29.6300 N   0  0  0  0  0  0  0  0  0  0  0  0
   56.5460   78.3580   28.7400 C   0  0  0  0  0  0  0  0  0  0  0  0
   57.8770   78.7410   28.8800 N   0  0  0  0  0  0  0  0  0  0  0  0
   58.5160   79.8210   29.5000 C   0  0  0  0  0  0  0  0  0  0  0  0
   59.0990   80.8810   28.8110 C   0  0  0  0  0  0  0  0  0  0  0  0
   59.6970   81.9090   29.5260 C   0  0  0  0  0  0  0  0  0  0  0  0
   59.7510   81.9590   30.8730 N   0  0  0  0  0  0  0  0  0  0  0  0
   59.1800   80.9320   31.5290 C   0  0  0  0  0  0  0  0  0  0  0  0
   58.5600   79.8630   30.8980 C   0  0  0  0  0  0  0  0  0  0  0  0
   55.9350   78.8430   27.6480 N   0  0  0  0  0  0  0  0  0  0  0  0
   53.8790   80.4410   25.9770 N   0  0  0  0  0  0  0  0  0  0  0  0
   54.4130   81.5430   26.7800 C   0  0  0  0  0  0  0  0  0  0  0  0
   53.3100   82.4810   27.2700 C   0  0  0  0  0  0  0  0  0  0  0  0
   55.5570   82.3130   26.1140 C   0  0  0  0  0  0  0  0  0  0  0  0
   52.4953   82.5339   24.8697 H   0  0  0  0  0  0  0  0  0  0  0  0
   53.5729   82.1547   23.4835 H   0  0  0  0  0  0  0  0  0  0  0  0
   51.8722   81.5764   23.4835 H   0  0  0  0  0  0  0  0  0  0  0  0
   53.3893   77.3506   25.0934 H   0  0  0  0  0  0  0  0  0  0  0  0
   52.8759   77.4689   28.1743 H   0  0  0  0  0  0  0  0  0  0  0  0
   54.1279   76.6184   30.1386 H   0  0  0  0  0  0  0  0  0  0  0  0
   58.4540   78.1110   28.3430 H   0  0  0  0  0  0  0  0  0  0  0  0
   59.0857   80.9034   27.7113 H   0  0  0  0  0  0  0  0  0  0  0  0
   60.1550   82.7335   28.9598 H   0  0  0  0  0  0  0  0  0  0  0  0
   59.2063   80.9405   32.6287 H   0  0  0  0  0  0  0  0  0  0  0  0
   58.1069   79.0554   31.4917 H   0  0  0  0  0  0  0  0  0  0  0  0
   54.8633   81.0599   27.6597 H   0  0  0  0  0  0  0  0  0  0  0  0
   53.2987   82.4906   28.3699 H   0  0  0  0  0  0  0  0  0  0  0  0
   53.5006   83.4979   26.8964 H   0  0  0  0  0  0  0  0  0  0  0  0
   52.3369   82.1295   26.8964 H   0  0  0  0  0  0  0  0  0  0  0  0
   56.2051   82.7492   26.8884 H   0  0  0  0  0  0  0  0  0  0  0  0
   56.1453   81.6264   25.4876 H   0  0  0  0  0  0  0  0  0  0  0  0
   55.1423   83.1165   25.4876 H   0  0  0  0  0  0  0  0  0  0  0  0
  1  2  1  0
  2  3  2  0
  3  4  1  0
  4  5  2  0
  5  6  1  0
  6  7  1  0
  7  8  2  0
  8  9  1  0
  9 10  2  0
 10 11  1  0
 11 12  1  0
 12 13  2  0
 13 14  1  0
 14 15  2  0
 15 16  1  0
 16 17  2  0
 10 18  1  0
  5 19  1  0
 19 20  1  0
 20 21  1  0
 20 22  1  0
 19  2  1  0
 18  6  2  0
 17 12  1  0
  1 23  1  0
  1 24  1  0
  1 25  1  0
  4 26  1  0
  7 27  1  0
  8 28  1  0
 11 29  1  0
 13 30  1  0
 14 31  1  0
 16 32  1  0
 17 33  1  0
 20 34  1  0
 21 35  1  0
 21 36  1  0
 21 37  1  0
 22 38  1  0
 22 39  1  0
 22 40  1  0
M  END
>  <meeko>  (1) 
{"is_sidechain": false}

>  <smiles>  (1) 
Cc1ncc(-c2ccnc(Nc3ccncc3)n2)n1C(C)C

>  <vina_score>  (1) 
-8.104

>  <job_id>  (1) 
a4eb78cddde59b61

$$$$
