
     RDKit          3D

 53 55  0  0  0  0  0  0  0  0999 V2000
   60.7550   80.1080   34.9700 C   0  0  0  0  0  0  0  0  0  0  0  0
   59.6130   81.0840   34.7140 C   0  0  1  0  0  0  0  0  0  0  0  0
   60.1320   82.4220   34.8170 O   0  0  0  0  0  0  0  0  0  0  0  0
   58.9640   80.9140   33.3100 C   0  0  1  0  0  0  0  0  0  0  0  0
   58.1640   82.1570   32.9150 C   0  0  0  0  0  0  0  0  0  0  0  0
   60.0550   80.6850   32.3400 N   0  0  0  0  0  0  0  0  0  0  0  0
   59.6870   80.6570   30.9790 C   0  0  0  0  0  0  0  0  0  0  0  0
   58.8650   79.6860   30.5410 N   0  0  0  0  0  0  0  0  0  0  0  0
   58.4990   79.6640   29.2500 C   0  0  0  0  0  0  0  0  0  0  0  0
   57.6510   78.6740   28.7630 N   0  0  0  0  0  0  0  0  0  0  0  0
   56.3350   78.8280   28.2910 C   0  0  0  0  0  0  0  0  0  0  0  0
   56.0850   79.6870   27.2810 N   0  0  0  0  0  0  0  0  0  0  0  0
   54.8390   79.8000   26.8000 C   0  0  0  0  0  0  0  0  0  0  0  0
   54.7060   80.7140   25.7600 N   0  0  0  0  0  0  0  0  0  0  0  0
   53.7640   80.9160   24.7500 C   0  0  0  0  0  0  0  0  0  0  0  0
   53.2670   82.2170   24.5490 C   0  0  0  0  0  0  0  0  0  0  0  0
   52.3220   82.4940   23.5570 C   0  0  0  0  0  0  0  0  0  0  0  0
   51.8650   81.4610   22.7400 C   0  0  0  0  0  0  0  0  0  0  0  0
   50.6420   81.7930   21.4880 S   0  0  0  0  0  0  0  0  0  0  0  0
   49.3620   81.3570   22.0220 O   0  0  0  0  0  0  0  0  0  0  0  0
   50.8160   83.1670   21.0500 O   0  0  0  0  0  0  0  0  0  0  0  0
   51.0470   80.7730   20.2460 O   0  0  0  0  0  0  0  0  0  0  0  0
   49.9340   80.2310   19.4370 N   0  0  0  0  0  0  0  0  0  0  0  0
   52.3260   80.1580   22.9280 C   0  0  0  0  0  0  0  0  0  0  0  0
   53.2730   79.8960   23.9250 C   0  0  0  0  0  0  0  0  0  0  0  0
   53.8050   79.1000   27.2820 N   0  0  0  0  0  0  0  0  0  0  0  0
   54.0640   78.2510   28.2950 C   0  0  0  0  0  0  0  0  0  0  0  0
   55.3130   78.0730   28.8420 C   0  0  0  0  0  0  0  0  0  0  0  0
   55.5600   76.8560   30.2640 Br  0  0  0  0  0  0  0  0  0  0  0  0
   58.8740   80.5940   28.3610 N   0  0  0  0  0  0  0  0  0  0  0  0
   59.6840   81.5700   28.8190 C   0  0  0  0  0  0  0  0  0  0  0  0
   60.1250   81.6520   30.1190 C   0  0  0  0  0  0  0  0  0  0  0  0
   61.2700   83.0590   30.6450 Br  0  0  0  0  0  0  0  0  0  0  0  0
   60.8973   79.9864   36.0539 H   0  0  0  0  0  0  0  0  0  0  0  0
   60.5125   79.1338   34.5204 H   0  0  0  0  0  0  0  0  0  0  0  0
   61.6795   80.4993   34.5204 H   0  0  0  0  0  0  0  0  0  0  0  0
   58.8317   80.8808   35.4611 H   0  0  0  0  0  0  0  0  0  0  0  0
   60.5520   82.6310   33.9630 H   0  0  0  0  0  0  0  0  0  0  0  0
   58.2640   80.0656   33.3236 H   0  0  0  0  0  0  0  0  0  0  0  0
   57.8274   82.6800   33.8223 H   0  0  0  0  0  0  0  0  0  0  0  0
   58.8000   82.8284   32.3194 H   0  0  0  0  0  0  0  0  0  0  0  0
   57.2895   81.8562   32.3194 H   0  0  0  0  0  0  0  0  0  0  0  0
   60.5060   79.7920   32.5590 H   0  0  0  0  0  0  0  0  0  0  0  0
   57.8000   77.8310   29.3000 H   0  0  0  0  0  0  0  0  0  0  0  0
   55.5040   81.3340   25.7820 H   0  0  0  0  0  0  0  0  0  0  0  0
   53.6308   83.0354   25.1876 H   0  0  0  0  0  0  0  0  0  0  0  0
   51.9424   83.5176   23.4222 H   0  0  0  0  0  0  0  0  0  0  0  0
   49.6660   79.4260   20.0040 H   0  0  0  0  0  0  0  0  0  0  0  0
   49.2230   80.9480   19.6000 H   0  0  0  0  0  0  0  0  0  0  0  0
   51.9475   79.3409   22.2963 H   0  0  0  0  0  0  0  0  0  0  0  0
   53.6391   78.8680   24.0634 H   0  0  0  0  0  0  0  0  0  0  0  0
   53.2287   77.6667   28.7084 H   0  0  0  0  0  0  0  0  0  0  0  0
   60.0111   82.3460   28.1113 H   0  0  0  0  0  0  0  0  0  0  0  0
  1  2  1  0
  2  3  1  0
  2  4  1  0
  4  5  1  0
  4  6  1  0
  6  7  1  0
  7  8  2  0
  8  9  1  0
  9 10  1  0
 10 11  1  0
 11 12  2  0
 12 13  1  0
 13 14  1  0
 14 15  1  0
 15 16  1  0
 16 17  2  0
 17 18  1  0
 18 19  1  0
 19 20  2  0
 19 21  2  0
 19 22  1  0
 22 23  1  0
 18 24  2  0
 24 25  1  0
 13 26  2  0
 26 27  1  0
 27 28  2  0
 28 29  1  0
  9 30  2  0
 30 31  1  0
 31 32  2  0
 32 33  1  0
 32  7  1  0
 28 11  1  0
 25 15  2  0
  1 34  1  0
  1 35  1  0
  1 36  1  0
  2 37  1  1
  3 38  1  0
  4 39  1  1
  5 40  1  0
  5 41  1  0
  5 42  1  0
  6 43  1  0
 10 44  1  0
 14 45  1  0
 16 46  1  0
 17 47  1  0
 23 48  1  0
 23 49  1  0
 24 50  1  0
 25 51  1  0
 27 52  1  0
 31 53  1  0
M  END
>  <meeko>  (1) 
{"is_sidechain": false}

>  <smiles>  (1) 
C[C@@H](O)[C@@H](C)Nc1nc(Nc2nc(Nc3ccc(S(=O)(=O)ON)cc3)ncc2Br)ncc1Br

>  <vina_score>  (1) 
-8.687

>  <job_id>  (1) 
a4f44d99b05b4739

$$$$
