
     RDKit          3D

 39 40  0  0  0  0  0  0  0  0999 V2000
   58.6990   83.9550   31.6130 C   0  0  0  0  0  0  0  0  0  0  0  0
   60.0950   83.8010   31.0200 C   0  0  0  0  0  0  0  0  0  0  0  0
   61.0650   84.7780   31.6800 C   0  0  0  0  0  0  0  0  0  0  0  0
   60.7180   82.1220   31.1810 S   0  0  0  0  0  0  0  0  0  0  0  0
   61.8350   81.9580   30.2700 O   0  0  0  0  0  0  0  0  0  0  0  0
   60.8670   81.8160   32.5920 O   0  0  0  0  0  0  0  0  0  0  0  0
   59.4040   81.1010   30.5480 C   0  0  0  0  0  0  0  0  0  0  0  0
   59.1880   81.0140   29.1730 C   0  0  0  0  0  0  0  0  0  0  0  0
   58.1470   80.2150   28.6920 C   0  0  0  0  0  0  0  0  0  0  0  0
   57.3080   79.5060   29.5690 C   0  0  0  0  0  0  0  0  0  0  0  0
   56.2120   78.6680   29.0570 C   0  0  0  0  0  0  0  0  0  0  0  0
   55.9250   77.4180   29.6330 C   0  0  0  0  0  0  0  0  0  0  0  0
   54.8910   76.6120   29.1450 C   0  0  0  0  0  0  0  0  0  0  0  0
   54.1180   77.0440   28.0700 C   0  0  0  0  0  0  0  0  0  0  0  0
   54.3820   78.2880   27.4960 C   0  0  0  0  0  0  0  0  0  0  0  0
   53.4310   78.8340   26.1110 S   0  0  0  0  0  0  0  0  0  0  0  0
   54.6080   79.5200   25.1300 N   0  0  0  0  0  0  0  0  0  0  0  0
   52.9350   77.6840   25.3920 O   0  0  0  0  0  0  0  0  0  0  0  0
   52.5720   79.9210   26.5200 O   0  0  0  0  0  0  0  0  0  0  0  0
   55.4250   79.0920   27.9740 C   0  0  0  0  0  0  0  0  0  0  0  0
   57.5380   79.6260   30.9510 C   0  0  0  0  0  0  0  0  0  0  0  0
   58.5760   80.4230   31.4450 C   0  0  0  0  0  0  0  0  0  0  0  0
   58.7642   83.9478   32.7110 H   0  0  0  0  0  0  0  0  0  0  0  0
   58.2612   84.9069   31.2779 H   0  0  0  0  0  0  0  0  0  0  0  0
   58.0643   83.1214   31.2779 H   0  0  0  0  0  0  0  0  0  0  0  0
   60.0171   84.0283   29.9466 H   0  0  0  0  0  0  0  0  0  0  0  0
   60.9821   84.6945   32.7737 H   0  0  0  0  0  0  0  0  0  0  0  0
   62.0933   84.5389   31.3709 H   0  0  0  0  0  0  0  0  0  0  0  0
   60.8185   85.8045   31.3709 H   0  0  0  0  0  0  0  0  0  0  0  0
   59.8307   81.5689   28.4737 H   0  0  0  0  0  0  0  0  0  0  0  0
   57.9812   80.1396   27.6072 H   0  0  0  0  0  0  0  0  0  0  0  0
   56.5258   77.0666   30.4848 H   0  0  0  0  0  0  0  0  0  0  0  0
   54.6883   75.6363   29.6107 H   0  0  0  0  0  0  0  0  0  0  0  0
   53.3082   76.4113   27.6778 H   0  0  0  0  0  0  0  0  0  0  0  0
   54.4070   80.5110   24.9910 H   0  0  0  0  0  0  0  0  0  0  0  0
   55.5330   79.3400   25.5210 H   0  0  0  0  0  0  0  0  0  0  0  0
   55.6289   80.0623   27.4976 H   0  0  0  0  0  0  0  0  0  0  0  0
   56.8905   79.0838   31.6558 H   0  0  0  0  0  0  0  0  0  0  0  0
   58.7384   80.5147   32.5291 H   0  0  0  0  0  0  0  0  0  0  0  0
  1  2  1  0
  2  3  1  0
  2  4  1  0
  4  5  2  0
  4  6  2  0
  4  7  1  0
  7  8  1  0
  8  9  2  0
  9 10  1  0
 10 11  1  0
 11 12  1  0
 12 13  2  0
 13 14  1  0
 14 15  2  0
 15 16  1  0
 16 17  1  0
 16 18  2  0
 16 19  2  0
 15 20  1  0
 10 21  2  0
 21 22  1  0
 22  7  2  0
 20 11  2  0
  1 23  1  0
  1 24  1  0
  1 25  1  0
  2 26  1  0
  3 27  1  0
  3 28  1  0
  3 29  1  0
  8 30  1  0
  9 31  1  0
 12 32  1  0
 13 33  1  0
 14 34  1  0
 17 35  1  0
 17 36  1  0
 20 37  1  0
 21 38  1  0
 22 39  1  0
M  END
>  <meeko>  (1) 
{"is_sidechain": false}

>  <smiles>  (1) 
CC(C)S(=O)(=O)c1ccc(-c2cccc(S(N)(=O)=O)c2)cc1

>  <vina_score>  (1) 
-7.354

>  <job_id>  (1) 
a50e67aba5c34bbf

$$$$
