
     RDKit          3D

 47 49  0  0  0  0  0  0  0  0999 V2000
   52.9610   78.0040   26.0090 O   0  0  0  0  0  0  0  0  0  0  0  0
   53.6670   78.8680   26.5270 C   0  0  0  0  0  0  0  0  0  0  0  0
   54.5620   78.4450   27.6270 C   0  0  0  0  0  0  0  0  0  0  0  0
   54.0800   77.6410   28.6640 C   0  0  0  0  0  0  0  0  0  0  0  0
   54.9360   77.2660   29.6990 C   0  0  0  0  0  0  0  0  0  0  0  0
   56.2630   77.7050   29.7020 C   0  0  0  0  0  0  0  0  0  0  0  0
   56.7480   78.5340   28.6780 C   0  0  0  0  0  0  0  0  0  0  0  0
   58.1840   79.0060   28.6820 C   0  0  0  0  0  0  0  0  0  0  0  0
   58.4360   80.1600   29.6250 C   0  0  0  0  0  0  0  0  0  0  0  0
   58.4630   79.9540   31.0120 C   0  0  0  0  0  0  0  0  0  0  0  0
   58.7070   81.0180   31.8830 C   0  0  0  0  0  0  0  0  0  0  0  0
   58.9300   82.2960   31.3760 C   0  0  0  0  0  0  0  0  0  0  0  0
   58.9110   82.5130   29.9990 C   0  0  0  0  0  0  0  0  0  0  0  0
   58.6660   81.4510   29.1270 C   0  0  0  0  0  0  0  0  0  0  0  0
   55.8810   78.9080   27.6410 C   0  0  0  0  0  0  0  0  0  0  0  0
   53.6840   80.2070   26.1090 N   0  0  0  0  0  0  0  0  0  0  0  0
   52.8620   80.5090   24.9330 C   0  0  0  0  0  0  0  0  0  0  0  0
   51.9390   81.7260   25.0070 C   0  0  0  0  0  0  0  0  0  0  0  0
   52.6160   83.0780   24.7150 C   0  0  0  0  0  0  0  0  0  0  0  0
   53.0560   83.7710   25.9230 N   0  0  0  0  0  0  0  0  0  0  0  0
   54.4880   83.6750   26.1990 C   0  0  0  0  0  0  0  0  0  0  0  0
   55.0480   82.2710   26.4250 C   0  0  0  0  0  0  0  0  0  0  0  0
   54.0270   81.3040   27.0280 C   0  0  0  0  0  0  0  0  0  0  0  0
   53.0322   77.3063   28.6636 H   0  0  0  0  0  0  0  0  0  0  0  0
   54.5669   76.6248   30.5130 H   0  0  0  0  0  0  0  0  0  0  0  0
   56.9354   77.3973   30.5164 H   0  0  0  0  0  0  0  0  0  0  0  0
   58.8263   78.1648   28.9816 H   0  0  0  0  0  0  0  0  0  0  0  0
   58.4106   79.3624   27.6663 H   0  0  0  0  0  0  0  0  0  0  0  0
   58.2906   78.9460   31.4172 H   0  0  0  0  0  0  0  0  0  0  0  0
   58.7231   80.8468   32.9695 H   0  0  0  0  0  0  0  0  0  0  0  0
   59.1211   83.1342   32.0622 H   0  0  0  0  0  0  0  0  0  0  0  0
   59.0893   83.5222   29.5993 H   0  0  0  0  0  0  0  0  0  0  0  0
   58.6532   81.6277   28.0414 H   0  0  0  0  0  0  0  0  0  0  0  0
   56.2397   79.5672   26.8368 H   0  0  0  0  0  0  0  0  0  0  0  0
   53.5454   80.6655   24.0854 H   0  0  0  0  0  0  0  0  0  0  0  0
   52.1827   79.6489   24.8392 H   0  0  0  0  0  0  0  0  0  0  0  0
   51.1298   81.5850   24.2753 H   0  0  0  0  0  0  0  0  0  0  0  0
   51.5848   81.7791   26.0471 H   0  0  0  0  0  0  0  0  0  0  0  0
   53.4925   82.8996   24.0748 H   0  0  0  0  0  0  0  0  0  0  0  0
   51.8699   83.7189   24.2225 H   0  0  0  0  0  0  0  0  0  0  0  0
   52.5530   83.3900   26.7270 H   0  0  0  0  0  0  0  0  0  0  0  0
   55.0230   84.1142   25.3441 H   0  0  0  0  0  0  0  0  0  0  0  0
   54.6360   84.2036   27.1523 H   0  0  0  0  0  0  0  0  0  0  0  0
   55.3820   81.8680   25.4575 H   0  0  0  0  0  0  0  0  0  0  0  0
   55.8761   82.3614   27.1434 H   0  0  0  0  0  0  0  0  0  0  0  0
   54.4479   80.8748   27.9492 H   0  0  0  0  0  0  0  0  0  0  0  0
   53.1069   81.8713   27.2320 H   0  0  0  0  0  0  0  0  0  0  0  0
  1  2  2  0
  2  3  1  0
  3  4  1  0
  4  5  2  0
  5  6  1  0
  6  7  2  0
  7  8  1  0
  8  9  1  0
  9 10  2  0
 10 11  1  0
 11 12  2  0
 12 13  1  0
 13 14  2  0
  7 15  1  0
  2 16  1  0
 16 17  1  0
 17 18  1  0
 18 19  1  0
 19 20  1  0
 20 21  1  0
 21 22  1  0
 22 23  1  0
 15  3  2  0
 23 16  1  0
 14  9  1  0
  4 24  1  0
  5 25  1  0
  6 26  1  0
  8 27  1  0
  8 28  1  0
 10 29  1  0
 11 30  1  0
 12 31  1  0
 13 32  1  0
 14 33  1  0
 15 34  1  0
 17 35  1  0
 17 36  1  0
 18 37  1  0
 18 38  1  0
 19 39  1  0
 19 40  1  0
 20 41  1  0
 21 42  1  0
 21 43  1  0
 22 44  1  0
 22 45  1  0
 23 46  1  0
 23 47  1  0
M  END
>  <meeko>  (1) 
{"is_sidechain": false}

>  <smiles>  (1) 
O=C(c1cccc(Cc2ccccc2)c1)N1CCCNCCC1

>  <vina_score>  (1) 
-6.904

>  <job_id>  (1) 
a56a2968c312844c

$$$$
