
     RDKit          3D

 40 42  0  0  0  0  0  0  0  0999 V2000
   53.1270   77.6490   27.5230 O   0  0  0  0  0  0  0  0  0  0  0  0
   53.8750   78.5720   27.2140 C   0  0  0  0  0  0  0  0  0  0  0  0
   53.4380   79.4710   26.1230 C   0  0  0  0  0  0  0  0  0  0  0  0
   53.4010   78.9790   24.8130 C   0  0  0  0  0  0  0  0  0  0  0  0
   52.9610   79.8020   23.7750 C   0  0  0  0  0  0  0  0  0  0  0  0
   52.5470   81.1060   24.0520 C   0  0  0  0  0  0  0  0  0  0  0  0
   52.0070   82.1190   22.7720 Cl  0  0  0  0  0  0  0  0  0  0  0  0
   52.5600   81.5920   25.3610 C   0  0  0  0  0  0  0  0  0  0  0  0
   52.9980   80.7720   26.4020 C   0  0  0  0  0  0  0  0  0  0  0  0
   55.0890   78.8320   27.8560 N   0  0  0  0  0  0  0  0  0  0  0  0
   55.4640   77.9120   28.9350 C   0  0  0  0  0  0  0  0  0  0  0  0
   56.5040   78.5190   29.8930 C   0  0  0  0  0  0  0  0  0  0  0  0
   57.6420   79.0700   29.1530 N   0  0  0  0  0  0  0  0  0  0  0  0
   58.7280   79.4830   29.9390 N   0  0  0  0  0  0  0  0  0  0  0  0
   58.7660   80.5980   30.8220 C   0  0  0  0  0  0  0  0  0  0  0  0
   58.1670   80.6070   32.0890 C   0  0  0  0  0  0  0  0  0  0  0  0
   58.1840   81.7510   32.8950 C   0  0  0  0  0  0  0  0  0  0  0  0
   58.7860   82.9220   32.4440 C   0  0  0  0  0  0  0  0  0  0  0  0
   59.3660   82.9540   31.1800 C   0  0  0  0  0  0  0  0  0  0  0  0
   59.3480   81.8080   30.3780 C   0  0  0  0  0  0  0  0  0  0  0  0
   60.0870   81.9080   28.8130 Cl  0  0  0  0  0  0  0  0  0  0  0  0
   57.2710   80.0310   28.1140 C   0  0  0  0  0  0  0  0  0  0  0  0
   56.2350   79.4260   27.1500 C   0  0  0  0  0  0  0  0  0  0  0  0
   53.7177   77.9469   24.6022 H   0  0  0  0  0  0  0  0  0  0  0  0
   52.9406   79.4242   22.7421 H   0  0  0  0  0  0  0  0  0  0  0  0
   52.2258   82.6187   25.5712 H   0  0  0  0  0  0  0  0  0  0  0  0
   52.9979   81.1452   27.4368 H   0  0  0  0  0  0  0  0  0  0  0  0
   54.5618   77.6564   29.5100 H   0  0  0  0  0  0  0  0  0  0  0  0
   55.9152   77.0216   28.4729 H   0  0  0  0  0  0  0  0  0  0  0  0
   56.0304   79.3232   30.4752 H   0  0  0  0  0  0  0  0  0  0  0  0
   56.8713   77.7249   30.5597 H   0  0  0  0  0  0  0  0  0  0  0  0
   59.2730   78.7070   30.3310 H   0  0  0  0  0  0  0  0  0  0  0  0
   57.6732   79.6958   32.4577 H   0  0  0  0  0  0  0  0  0  0  0  0
   57.7186   81.7245   33.8913 H   0  0  0  0  0  0  0  0  0  0  0  0
   58.8031   83.8170   33.0833 H   0  0  0  0  0  0  0  0  0  0  0  0
   59.8373   83.8774   30.8123 H   0  0  0  0  0  0  0  0  0  0  0  0
   56.8420   80.9261   28.5881 H   0  0  0  0  0  0  0  0  0  0  0  0
   58.1723   80.2940   27.5409 H   0  0  0  0  0  0  0  0  0  0  0  0
   55.8663   80.2203   26.4844 H   0  0  0  0  0  0  0  0  0  0  0  0
   56.7322   78.6238   26.5850 H   0  0  0  0  0  0  0  0  0  0  0  0
  1  2  2  0
  2  3  1  0
  3  4  1  0
  4  5  2  0
  5  6  1  0
  6  7  1  0
  6  8  2  0
  8  9  1  0
  2 10  1  0
 10 11  1  0
 11 12  1  0
 12 13  1  0
 13 14  1  0
 14 15  1  0
 15 16  2  0
 16 17  1  0
 17 18  2  0
 18 19  1  0
 19 20  2  0
 20 21  1  0
 13 22  1  0
 22 23  1  0
  9  3  2  0
 23 10  1  0
 20 15  1  0
  4 24  1  0
  5 25  1  0
  8 26  1  0
  9 27  1  0
 11 28  1  0
 11 29  1  0
 12 30  1  0
 12 31  1  0
 14 32  1  0
 16 33  1  0
 17 34  1  0
 18 35  1  0
 19 36  1  0
 22 37  1  0
 22 38  1  0
 23 39  1  0
 23 40  1  0
M  END
>  <meeko>  (1) 
{"is_sidechain": false}

>  <smiles>  (1) 
O=C(c1ccc(Cl)cc1)N1CCN(Nc2ccccc2Cl)CC1

>  <vina_score>  (1) 
-8.138

>  <job_id>  (1) 
a5cbb99de9e7483e

$$$$
