
     RDKit          3D

 50 53  0  0  0  0  0  0  0  0999 V2000
   49.8940   81.3570   21.9760 N   0  0  0  0  0  0  0  0  0  0  0  0
   51.5360   81.7220   21.8950 S   0  0  0  0  0  0  0  0  0  0  0  0
   52.0430   80.9860   20.7590 O   0  0  0  0  0  0  0  0  0  0  0  0
   51.6800   83.1520   22.0230 O   0  0  0  0  0  0  0  0  0  0  0  0
   52.1400   80.9600   23.3760 C   0  0  0  0  0  0  0  0  0  0  0  0
   52.7240   79.6950   23.3090 C   0  0  0  0  0  0  0  0  0  0  0  0
   53.1940   79.0930   24.4790 C   0  0  0  0  0  0  0  0  0  0  0  0
   53.0870   79.7380   25.7220 C   0  0  0  0  0  0  0  0  0  0  0  0
   53.5400   79.0730   26.8740 N   0  0  0  0  0  0  0  0  0  0  0  0
   54.7940   79.0420   27.5100 C   0  0  0  0  0  0  0  0  0  0  0  0
   55.0490   78.2880   28.6590 C   0  0  0  0  0  0  0  0  0  0  0  0
   56.3040   78.3200   29.2800 C   0  0  0  0  0  0  0  0  0  0  0  0
   57.3430   79.0960   28.7590 C   0  0  0  0  0  0  0  0  0  0  0  0
   58.5780   79.1620   29.4430 N   0  0  0  0  0  0  0  0  0  0  0  0
   58.7190   79.8630   30.6160 N   0  0  0  0  0  0  0  0  0  0  0  0
   59.6420   80.8480   30.7520 C   0  0  0  0  0  0  0  0  0  0  0  0
   60.1670   81.6010   29.7280 C   0  0  0  0  0  0  0  0  0  0  0  0
   59.9510   81.5660   28.4210 O   0  0  0  0  0  0  0  0  0  0  0  0
   61.0570   82.4840   30.2670 N   0  0  0  0  0  0  0  0  0  0  0  0
   61.1420   82.3040   31.6310 C   0  0  0  0  0  0  0  0  0  0  0  0
   61.9290   82.9720   32.5780 C   0  0  0  0  0  0  0  0  0  0  0  0
   61.8160   82.5750   33.9130 C   0  0  0  0  0  0  0  0  0  0  0  0
   60.9420   81.5430   34.2750 C   0  0  0  0  0  0  0  0  0  0  0  0
   60.8400   81.1420   35.6840 N   0  0  0  0  0  0  0  0  0  0  0  0
   60.0490   80.2310   35.9700 O   0  0  0  0  0  0  0  0  0  0  0  0
   61.5540   81.7360   36.5060 O   0  0  0  0  0  0  0  0  0  0  0  0
   60.1550   80.8790   33.3170 C   0  0  0  0  0  0  0  0  0  0  0  0
   60.2600   81.2700   31.9650 C   0  0  0  0  0  0  0  0  0  0  0  0
   57.0780   79.8840   27.6360 C   0  0  0  0  0  0  0  0  0  0  0  0
   55.8240   79.8490   27.0150 C   0  0  0  0  0  0  0  0  0  0  0  0
   52.4790   81.0000   25.7640 C   0  0  0  0  0  0  0  0  0  0  0  0
   52.0050   81.6140   24.6000 C   0  0  0  0  0  0  0  0  0  0  0  0
   49.5770   81.1280   22.9170 H   0  0  0  0  0  0  0  0  0  0  0  0
   49.6900   80.6060   21.3130 H   0  0  0  0  0  0  0  0  0  0  0  0
   52.8137   79.1759   22.3434 H   0  0  0  0  0  0  0  0  0  0  0  0
   53.6560   78.0962   24.4256 H   0  0  0  0  0  0  0  0  0  0  0  0
   52.8230   78.5500   27.3630 H   0  0  0  0  0  0  0  0  0  0  0  0
   54.2515   77.6596   29.0822 H   0  0  0  0  0  0  0  0  0  0  0  0
   56.4742   77.7262   30.1902 H   0  0  0  0  0  0  0  0  0  0  0  0
   59.3700   79.2560   28.8020 H   0  0  0  0  0  0  0  0  0  0  0  0
   57.9090   79.8450   31.2380 H   0  0  0  0  0  0  0  0  0  0  0  0
   59.8190   82.5110   28.1890 H   0  0  0  0  0  0  0  0  0  0  0  0
   61.5850   83.1540   29.7260 H   0  0  0  0  0  0  0  0  0  0  0  0
   62.6124   83.7812   32.2809 H   0  0  0  0  0  0  0  0  0  0  0  0
   62.4180   83.0768   34.6849 H   0  0  0  0  0  0  0  0  0  0  0  0
   59.4711   80.0708   33.6156 H   0  0  0  0  0  0  0  0  0  0  0  0
   57.8646   80.5400   27.2349 H   0  0  0  0  0  0  0  0  0  0  0  0
   55.6454   80.4666   26.1225 H   0  0  0  0  0  0  0  0  0  0  0  0
   52.3727   81.5167   26.7292 H   0  0  0  0  0  0  0  0  0  0  0  0
   51.5296   82.6047   24.6499 H   0  0  0  0  0  0  0  0  0  0  0  0
  1  2  1  0
  2  3  2  0
  2  4  2  0
  2  5  1  0
  5  6  1  0
  6  7  2  0
  7  8  1  0
  8  9  1  0
  9 10  1  0
 10 11  1  0
 11 12  2  0
 12 13  1  0
 13 14  1  0
 14 15  1  0
 15 16  1  0
 16 17  2  0
 17 18  1  0
 17 19  1  0
 19 20  1  0
 20 21  2  0
 21 22  1  0
 22 23  2  0
 23 24  1  0
 24 25  2  0
 24 26  1  0
 23 27  1  0
 27 28  2  0
 13 29  2  0
 29 30  1  0
  8 31  2  0
 31 32  1  0
 32  5  2  0
 30 10  2  0
 28 16  1  0
 28 20  1  0
  1 33  1  0
  1 34  1  0
  6 35  1  0
  7 36  1  0
  9 37  1  0
 11 38  1  0
 12 39  1  0
 14 40  1  0
 15 41  1  0
 18 42  1  0
 19 43  1  0
 21 44  1  0
 22 45  1  0
 27 46  1  0
 29 47  1  0
 30 48  1  0
 31 49  1  0
 32 50  1  0
M  CHG  2  24   1  26  -1
M  END
>  <meeko>  (1) 
{"is_sidechain": false}

>  <smiles>  (1) 
NS(=O)(=O)c1ccc(Nc2ccc(NNc3c(O)[nH]c4ccc([N+](=O)[O-])cc34)cc2)cc1

>  <vina_score>  (1) 
-9.737

>  <job_id>  (1) 
a5e1cb85e5771688

$$$$
