
     RDKit          3D

 46 48  0  0  0  0  0  0  0  0999 V2000
   62.6410   84.8770   35.0250 C   0  0  0  0  0  0  0  0  0  0  0  0
   61.6380   84.9500   33.9690 N   0  0  0  0  0  0  0  0  0  0  0  0
   62.2180   84.5440   32.6700 C   0  0  0  0  0  0  0  0  0  0  0  0
   61.1860   84.0070   31.6520 C   0  0  0  0  0  0  0  0  0  0  0  0
   60.5070   82.8140   32.1860 N   0  0  0  0  0  0  0  0  0  0  0  0
   59.9190   81.8750   31.3570 C   0  0  0  0  0  0  0  0  0  0  0  0
   60.0600   81.9160   29.9640 C   0  0  0  0  0  0  0  0  0  0  0  0
   59.4640   80.9620   29.1220 C   0  0  0  0  0  0  0  0  0  0  0  0
   58.7090   79.9130   29.6430 C   0  0  0  0  0  0  0  0  0  0  0  0
   58.0540   78.9570   28.8480 N   0  0  0  0  0  0  0  0  0  0  0  0
   56.6940   78.6770   28.6370 C   0  0  0  0  0  0  0  0  0  0  0  0
   56.1020   77.6120   29.3350 C   0  0  0  0  0  0  0  0  0  0  0  0
   54.7600   77.2680   29.1380 C   0  0  0  0  0  0  0  0  0  0  0  0
   53.9830   77.9870   28.2350 C   0  0  0  0  0  0  0  0  0  0  0  0
   54.5600   79.0500   27.5410 C   0  0  0  0  0  0  0  0  0  0  0  0
   53.5940   79.9790   26.3840 S   0  0  0  0  0  0  0  0  0  0  0  0
   54.6950   80.2040   25.1290 N   0  0  0  0  0  0  0  0  0  0  0  0
   52.5600   79.1190   25.8590 O   0  0  0  0  0  0  0  0  0  0  0  0
   53.3100   81.2750   26.9530 O   0  0  0  0  0  0  0  0  0  0  0  0
   55.9060   79.3900   27.7290 C   0  0  0  0  0  0  0  0  0  0  0  0
   58.5590   79.8570   31.0300 C   0  0  0  0  0  0  0  0  0  0  0  0
   59.1530   80.8160   31.8660 C   0  0  0  0  0  0  0  0  0  0  0  0
   60.3680   82.7450   33.6510 C   0  0  0  0  0  0  0  0  0  0  0  0
   60.4370   84.1520   34.2920 C   0  0  0  0  0  0  0  0  0  0  0  0
   62.1442   84.9132   36.0057 H   0  0  0  0  0  0  0  0  0  0  0  0
   63.2025   83.9356   34.9329 H   0  0  0  0  0  0  0  0  0  0  0  0
   63.3329   85.7272   34.9329 H   0  0  0  0  0  0  0  0  0  0  0  0
   62.7160   85.4189   32.2267 H   0  0  0  0  0  0  0  0  0  0  0  0
   62.9126   83.7173   32.8800 H   0  0  0  0  0  0  0  0  0  0  0  0
   60.4386   84.7879   31.4480 H   0  0  0  0  0  0  0  0  0  0  0  0
   61.7106   83.7326   30.7249 H   0  0  0  0  0  0  0  0  0  0  0  0
   60.6576   82.7224   29.5140 H   0  0  0  0  0  0  0  0  0  0  0  0
   59.5956   81.0446   28.0330 H   0  0  0  0  0  0  0  0  0  0  0  0
   58.6870   78.4120   28.2730 H   0  0  0  0  0  0  0  0  0  0  0  0
   56.7059   77.0361   30.0517 H   0  0  0  0  0  0  0  0  0  0  0  0
   54.3194   76.4293   29.6969 H   0  0  0  0  0  0  0  0  0  0  0  0
   52.9284   77.7206   28.0709 H   0  0  0  0  0  0  0  0  0  0  0  0
   54.7050   79.4340   24.4610 H   0  0  0  0  0  0  0  0  0  0  0  0
   54.5000   81.0990   24.6760 H   0  0  0  0  0  0  0  0  0  0  0  0
   56.3449   80.2223   27.1592 H   0  0  0  0  0  0  0  0  0  0  0  0
   57.9643   79.0463   31.4762 H   0  0  0  0  0  0  0  0  0  0  0  0
   59.0133   80.7342   32.9540 H   0  0  0  0  0  0  0  0  0  0  0  0
   59.3988   82.2867   33.8973 H   0  0  0  0  0  0  0  0  0  0  0  0
   61.1975   82.1422   34.0493 H   0  0  0  0  0  0  0  0  0  0  0  0
   59.5557   84.7186   33.9570 H   0  0  0  0  0  0  0  0  0  0  0  0
   60.4752   83.9828   35.3782 H   0  0  0  0  0  0  0  0  0  0  0  0
  1  2  1  0
  2  3  1  0
  3  4  1  0
  4  5  1  0
  5  6  1  0
  6  7  1  0
  7  8  2  0
  8  9  1  0
  9 10  1  0
 10 11  1  0
 11 12  1  0
 12 13  2  0
 13 14  1  0
 14 15  2  0
 15 16  1  0
 16 17  1  0
 16 18  2  0
 16 19  2  0
 15 20  1  0
  9 21  2  0
 21 22  1  0
  5 23  1  0
 23 24  1  0
 24  2  1  0
 22  6  2  0
 20 11  2  0
  1 25  1  0
  1 26  1  0
  1 27  1  0
  3 28  1  0
  3 29  1  0
  4 30  1  0
  4 31  1  0
  7 32  1  0
  8 33  1  0
 10 34  1  0
 12 35  1  0
 13 36  1  0
 14 37  1  0
 17 38  1  0
 17 39  1  0
 20 40  1  0
 21 41  1  0
 22 42  1  0
 23 43  1  0
 23 44  1  0
 24 45  1  0
 24 46  1  0
M  END
>  <meeko>  (1) 
{"is_sidechain": false}

>  <smiles>  (1) 
CN1CCN(c2ccc(Nc3cccc(S(N)(=O)=O)c3)cc2)CC1

>  <vina_score>  (1) 
-8.151

>  <job_id>  (1) 
a66e74f8519dbdbe

$$$$
