
     RDKit          3D

 41 43  0  0  0  0  0  0  0  0999 V2000
   53.2040   83.2320   26.5200 C   0  0  0  0  0  0  0  0  0  0  0  0
   54.5200   82.7970   27.1370 C   0  0  0  0  0  0  0  0  0  0  0  0
   55.4810   82.3740   26.0510 C   0  0  0  0  0  0  0  0  0  0  0  0
   55.9640   81.1920   25.7900 N   0  0  0  0  0  0  0  0  0  0  0  0
   55.5020   80.1540   26.6070 C   0  0  0  0  0  0  0  0  0  0  0  0
   54.2600   79.4710   26.4450 C   0  0  0  0  0  0  0  0  0  0  0  0
   53.2410   79.7010   25.4730 C   0  0  0  0  0  0  0  0  0  0  0  0
   52.3950   79.8910   24.7020 N   0  0  0  0  0  0  0  0  0  0  0  0
   54.2320   78.5320   27.4420 C   0  0  0  0  0  0  0  0  0  0  0  0
   55.4010   78.6210   28.1420 N   0  0  0  0  0  0  0  0  0  0  0  0
   56.2320   79.5780   27.6450 C   0  0  0  0  0  0  0  0  0  0  0  0
   57.5590   79.8590   28.1630 C   0  0  0  0  0  0  0  0  0  0  0  0
   58.5600   79.3650   27.6530 O   0  0  0  0  0  0  0  0  0  0  0  0
   57.5560   80.7210   29.2410 N   0  0  0  0  0  0  0  0  0  0  0  0
   58.6460   81.1870   29.9970 C   0  0  0  0  0  0  0  0  0  0  0  0
   58.7560   80.7160   31.3110 C   0  0  0  0  0  0  0  0  0  0  0  0
   59.8110   81.1230   32.1320 C   0  0  0  0  0  0  0  0  0  0  0  0
   60.7690   82.0070   31.6430 C   0  0  0  0  0  0  0  0  0  0  0  0
   60.6700   82.4810   30.3370 C   0  0  0  0  0  0  0  0  0  0  0  0
   59.6120   82.0720   29.5160 C   0  0  0  0  0  0  0  0  0  0  0  0
   55.5050   77.6370   29.2080 C   0  0  0  0  0  0  0  0  0  0  0  0
   54.3680   76.6610   28.8570 C   0  0  0  0  0  0  0  0  0  0  0  0
   53.3700   77.4610   27.9860 C   0  0  0  0  0  0  0  0  0  0  0  0
   52.4855   83.4695   27.3183 H   0  0  0  0  0  0  0  0  0  0  0  0
   53.3681   84.1237   25.8972 H   0  0  0  0  0  0  0  0  0  0  0  0
   52.8043   82.4182   25.8972 H   0  0  0  0  0  0  0  0  0  0  0  0
   54.9534   83.6359   27.7013 H   0  0  0  0  0  0  0  0  0  0  0  0
   54.3404   81.9480   27.8130 H   0  0  0  0  0  0  0  0  0  0  0  0
   55.8223   83.1797   25.3844 H   0  0  0  0  0  0  0  0  0  0  0  0
   56.6390   81.0730   29.5020 H   0  0  0  0  0  0  0  0  0  0  0  0
   58.0023   80.0167   31.7020 H   0  0  0  0  0  0  0  0  0  0  0  0
   59.8844   80.7457   33.1626 H   0  0  0  0  0  0  0  0  0  0  0  0
   61.6012   82.3300   32.2858 H   0  0  0  0  0  0  0  0  0  0  0  0
   61.4260   83.1795   29.9490 H   0  0  0  0  0  0  0  0  0  0  0  0
   59.5418   82.4506   28.4856 H   0  0  0  0  0  0  0  0  0  0  0  0
   56.4828   77.1333   29.1925 H   0  0  0  0  0  0  0  0  0  0  0  0
   55.4237   78.0671   30.2172 H   0  0  0  0  0  0  0  0  0  0  0  0
   54.7623   75.8018   28.2945 H   0  0  0  0  0  0  0  0  0  0  0  0
   53.8842   76.2651   29.7621 H   0  0  0  0  0  0  0  0  0  0  0  0
   52.9509   76.8376   27.1824 H   0  0  0  0  0  0  0  0  0  0  0  0
   52.4949   77.8323   28.5394 H   0  0  0  0  0  0  0  0  0  0  0  0
  1  2  1  0
  2  3  1  0
  3  4  2  3
  4  5  1  0
  5  6  1  0
  6  7  1  0
  7  8  3  0
  6  9  2  0
  9 10  1  0
 10 11  1  0
 11 12  1  0
 12 13  2  0
 12 14  1  0
 14 15  1  0
 15 16  2  0
 16 17  1  0
 17 18  2  0
 18 19  1  0
 19 20  2  0
 10 21  1  0
 21 22  1  0
 22 23  1  0
 11  5  2  0
 20 15  1  0
 23  9  1  0
  1 24  1  0
  1 25  1  0
  1 26  1  0
  2 27  1  0
  2 28  1  0
  3 29  1  0
 14 30  1  0
 16 31  1  0
 17 32  1  0
 18 33  1  0
 19 34  1  0
 20 35  1  0
 21 36  1  0
 21 37  1  0
 22 38  1  0
 22 39  1  0
 23 40  1  0
 23 41  1  0
M  END
>  <meeko>  (1) 
{"is_sidechain": false}

>  <smiles>  (1) 
CCC=Nc1c(C#N)c2n(c1C(=O)Nc1ccccc1)CCC2

>  <vina_score>  (1) 
-7.513

>  <job_id>  (1) 
a68a68432d3dddfb

$$$$
