
     RDKit          3D

 49 51  0  0  0  0  0  0  0  0999 V2000
   52.1580   80.8470   22.6690 C   0  0  0  0  0  0  0  0  0  0  0  0
   52.6870   80.2240   23.9280 C   0  0  0  0  0  0  0  0  0  0  0  0
   53.2810   78.9570   23.8960 C   0  0  0  0  0  0  0  0  0  0  0  0
   53.7460   78.3630   25.0730 C   0  0  0  0  0  0  0  0  0  0  0  0
   53.6080   79.0180   26.3020 C   0  0  0  0  0  0  0  0  0  0  0  0
   54.1260   78.3960   27.5740 C   0  0  0  0  0  0  0  0  0  0  0  0
   55.2870   79.1090   28.0580 N   0  0  0  0  0  0  0  0  0  0  0  0
   56.3280   78.4500   28.6760 C   0  0  0  0  0  0  0  0  0  0  0  0
   56.4000   77.2300   28.7730 O   0  0  0  0  0  0  0  0  0  0  0  0
   57.3850   79.3090   29.2760 C   0  0  0  0  0  0  0  0  0  0  0  0
   58.3340   79.9750   28.5010 C   0  0  0  0  0  0  0  0  0  0  0  0
   59.3090   80.7690   29.1190 C   0  0  0  0  0  0  0  0  0  0  0  0
   59.3790   80.9120   30.5160 C   0  0  0  0  0  0  0  0  0  0  0  0
   60.3700   81.7310   31.0790 N   0  0  0  0  0  0  0  0  0  0  0  0
   60.5330   81.5680   32.5420 C   0  0  0  0  0  0  0  0  0  0  0  0
   61.7980   82.3070   33.0460 C   0  0  0  0  0  0  0  0  0  0  0  0
   61.9140   83.7280   32.6500 N   0  0  0  0  0  0  0  0  0  0  0  0
   60.9700   84.5690   33.3830 C   0  0  0  0  0  0  0  0  0  0  0  0
   61.7150   83.8270   31.1870 C   0  0  0  0  0  0  0  0  0  0  0  0
   60.4370   83.1410   30.6440 C   0  0  0  0  0  0  0  0  0  0  0  0
   58.4130   80.2340   31.2730 C   0  0  0  0  0  0  0  0  0  0  0  0
   57.4350   79.4330   30.6660 C   0  0  0  0  0  0  0  0  0  0  0  0
   53.0060   80.2830   26.3320 C   0  0  0  0  0  0  0  0  0  0  0  0
   52.5440   80.8770   25.1550 C   0  0  0  0  0  0  0  0  0  0  0  0
   51.4657   81.6623   22.9261 H   0  0  0  0  0  0  0  0  0  0  0  0
   52.9949   81.2490   22.0791 H   0  0  0  0  0  0  0  0  0  0  0  0
   51.6257   80.0863   22.0791 H   0  0  0  0  0  0  0  0  0  0  0  0
   53.3826   78.4252   22.9385 H   0  0  0  0  0  0  0  0  0  0  0  0
   54.2240   77.3731   25.0328 H   0  0  0  0  0  0  0  0  0  0  0  0
   53.3368   78.4300   28.3395 H   0  0  0  0  0  0  0  0  0  0  0  0
   54.4129   77.3546   27.3661 H   0  0  0  0  0  0  0  0  0  0  0  0
   55.1660   80.0960   28.2380 H   0  0  0  0  0  0  0  0  0  0  0  0
   58.3171   79.8770   27.4055 H   0  0  0  0  0  0  0  0  0  0  0  0
   60.0425   81.2969   28.4918 H   0  0  0  0  0  0  0  0  0  0  0  0
   59.6490   81.9804   33.0505 H   0  0  0  0  0  0  0  0  0  0  0  0
   60.6412   80.4963   32.7651 H   0  0  0  0  0  0  0  0  0  0  0  0
   61.8000   82.2616   34.1451 H   0  0  0  0  0  0  0  0  0  0  0  0
   62.6505   81.7951   32.5756 H   0  0  0  0  0  0  0  0  0  0  0  0
   61.1216   84.4340   34.4641 H   0  0  0  0  0  0  0  0  0  0  0  0
   61.1364   85.6236   33.1183 H   0  0  0  0  0  0  0  0  0  0  0  0
   59.9415   84.2824   33.1183 H   0  0  0  0  0  0  0  0  0  0  0  0
   61.6666   84.8936   30.9222 H   0  0  0  0  0  0  0  0  0  0  0  0
   62.5626   83.2966   30.7286 H   0  0  0  0  0  0  0  0  0  0  0  0
   59.5531   83.6765   31.0208 H   0  0  0  0  0  0  0  0  0  0  0  0
   60.4634   83.1687   29.5447 H   0  0  0  0  0  0  0  0  0  0  0  0
   58.4225   80.3327   32.3685 H   0  0  0  0  0  0  0  0  0  0  0  0
   56.7024   78.8989   31.2889 H   0  0  0  0  0  0  0  0  0  0  0  0
   52.8963   80.8125   27.2899 H   0  0  0  0  0  0  0  0  0  0  0  0
   52.0641   81.8660   25.1945 H   0  0  0  0  0  0  0  0  0  0  0  0
  1  2  1  0
  2  3  1  0
  3  4  2  0
  4  5  1  0
  5  6  1  0
  6  7  1  0
  7  8  1  0
  8  9  2  0
  8 10  1  0
 10 11  1  0
 11 12  2  0
 12 13  1  0
 13 14  1  0
 14 15  1  0
 15 16  1  0
 16 17  1  0
 17 18  1  0
 17 19  1  0
 19 20  1  0
 13 21  2  0
 21 22  1  0
  5 23  2  0
 23 24  1  0
 24  2  2  0
 22 10  2  0
 20 14  1  0
  1 25  1  0
  1 26  1  0
  1 27  1  0
  3 28  1  0
  4 29  1  0
  6 30  1  0
  6 31  1  0
  7 32  1  0
 11 33  1  0
 12 34  1  0
 15 35  1  0
 15 36  1  0
 16 37  1  0
 16 38  1  0
 18 39  1  0
 18 40  1  0
 18 41  1  0
 19 42  1  0
 19 43  1  0
 20 44  1  0
 20 45  1  0
 21 46  1  0
 22 47  1  0
 23 48  1  0
 24 49  1  0
M  END
>  <meeko>  (1) 
{"is_sidechain": false}

>  <smiles>  (1) 
Cc1ccc(CNC(=O)c2ccc(N3CCN(C)CC3)cc2)cc1

>  <vina_score>  (1) 
-8.070

>  <job_id>  (1) 
a69a483477aecf00

$$$$
