
     RDKit          3D

 51 53  0  0  0  0  0  0  0  0999 V2000
   61.1930   84.2470   34.6210 C   0  0  0  0  0  0  0  0  0  0  0  0
   61.9980   83.8680   33.6200 C   0  0  0  0  0  0  0  0  0  0  0  0
   61.6840   82.6540   32.8080 C   0  0  0  0  0  0  0  0  0  0  0  0
   62.4890   81.7380   32.7120 O   0  0  0  0  0  0  0  0  0  0  0  0
   60.4350   82.7390   32.2300 N   0  0  0  0  0  0  0  0  0  0  0  0
   59.8080   81.7790   31.4070 C   0  0  0  0  0  0  0  0  0  0  0  0
   58.9750   80.7690   31.8770 C   0  0  0  0  0  0  0  0  0  0  0  0
   58.3920   79.8570   30.9840 C   0  0  0  0  0  0  0  0  0  0  0  0
   58.6420   79.9070   29.6070 C   0  0  0  0  0  0  0  0  0  0  0  0
   57.9780   79.0030   28.7790 N   0  0  0  0  0  0  0  0  0  0  0  0
   56.5440   78.7330   28.9100 C   0  0  0  0  0  0  0  0  0  0  0  0
   56.2900   77.2250   28.9070 C   0  0  0  0  0  0  0  0  0  0  0  0
   54.8120   76.9070   29.1450 C   0  0  0  0  0  0  0  0  0  0  0  0
   53.8680   77.9990   28.6420 C   0  0  0  0  0  0  0  0  0  0  0  0
   54.4430   78.7210   27.4200 C   0  0  0  0  0  0  0  0  0  0  0  0
   53.5050   79.7250   26.9340 N   0  0  0  0  0  0  0  0  0  0  0  0
   53.2630   79.8390   25.6070 C   0  0  0  0  0  0  0  0  0  0  0  0
   52.9540   78.8480   24.8060 N   0  0  0  0  0  0  0  0  0  0  0  0
   52.7810   79.3220   23.5210 C   0  0  0  0  0  0  0  0  0  0  0  0
   52.9350   80.6860   23.3340 C   0  0  0  0  0  0  0  0  0  0  0  0
   52.8060   81.3620   22.1560 N   0  0  0  0  0  0  0  0  0  0  0  0
   51.5750   81.3570   21.3960 C   0  0  0  0  0  0  0  0  0  0  0  0
   53.3390   81.3830   24.8530 S   0  0  0  0  0  0  0  0  0  0  0  0
   55.7840   79.4050   27.7500 C   0  0  0  0  0  0  0  0  0  0  0  0
   59.4490   80.9490   29.1450 C   0  0  0  0  0  0  0  0  0  0  0  0
   60.0340   81.8660   30.0300 C   0  0  0  0  0  0  0  0  0  0  0  0
   61.4346   85.1428   35.2120 H   0  0  0  0  0  0  0  0  0  0  0  0
   60.2903   83.6625   34.8522 H   0  0  0  0  0  0  0  0  0  0  0  0
   62.8993   84.4565   33.3935 H   0  0  0  0  0  0  0  0  0  0  0  0
   59.8970   83.5770   32.4010 H   0  0  0  0  0  0  0  0  0  0  0  0
   58.7721   80.6847   32.9548 H   0  0  0  0  0  0  0  0  0  0  0  0
   57.7192   79.0805   31.3769 H   0  0  0  0  0  0  0  0  0  0  0  0
   58.3040   79.0660   27.8170 H   0  0  0  0  0  0  0  0  0  0  0  0
   56.1831   79.1461   29.8635 H   0  0  0  0  0  0  0  0  0  0  0  0
   56.5923   76.8131   27.9328 H   0  0  0  0  0  0  0  0  0  0  0  0
   56.8765   76.7736   29.7208 H   0  0  0  0  0  0  0  0  0  0  0  0
   54.5689   75.9689   28.6246 H   0  0  0  0  0  0  0  0  0  0  0  0
   54.6676   76.8283   30.2326 H   0  0  0  0  0  0  0  0  0  0  0  0
   52.9066   77.5410   28.3666 H   0  0  0  0  0  0  0  0  0  0  0  0
   53.7348   78.7368   29.4469 H   0  0  0  0  0  0  0  0  0  0  0  0
   54.6138   77.9626   26.6417 H   0  0  0  0  0  0  0  0  0  0  0  0
   52.7440   79.9710   27.5570 H   0  0  0  0  0  0  0  0  0  0  0  0
   52.5330   78.6496   22.6865 H   0  0  0  0  0  0  0  0  0  0  0  0
   53.6420   81.5270   21.6010 H   0  0  0  0  0  0  0  0  0  0  0  0
   50.7182   81.3535   22.0858 H   0  0  0  0  0  0  0  0  0  0  0  0
   51.5318   82.2550   20.7621 H   0  0  0  0  0  0  0  0  0  0  0  0
   51.5391   80.4587   20.7621 H   0  0  0  0  0  0  0  0  0  0  0  0
   56.4202   79.3762   26.8531 H   0  0  0  0  0  0  0  0  0  0  0  0
   55.5553   80.4340   28.0643 H   0  0  0  0  0  0  0  0  0  0  0  0
   59.6294   81.0525   28.0648 H   0  0  0  0  0  0  0  0  0  0  0  0
   60.6795   82.6646   29.6355 H   0  0  0  0  0  0  0  0  0  0  0  0
  1  2  2  0
  2  3  1  0
  3  4  2  0
  3  5  1  0
  5  6  1  0
  6  7  1  0
  7  8  2  0
  8  9  1  0
  9 10  1  0
 10 11  1  0
 11 12  1  0
 12 13  1  0
 13 14  1  0
 14 15  1  0
 15 16  1  0
 16 17  1  0
 17 18  2  0
 18 19  1  0
 19 20  2  0
 20 21  1  0
 21 22  1  0
 20 23  1  0
 15 24  1  0
  9 25  2  0
 25 26  1  0
 26  6  2  0
 24 11  1  0
 23 17  1  0
  1 27  1  0
  1 28  1  0
  2 29  1  0
  5 30  1  0
  7 31  1  0
  8 32  1  0
 10 33  1  0
 11 34  1  0
 12 35  1  0
 12 36  1  0
 13 37  1  0
 13 38  1  0
 14 39  1  0
 14 40  1  0
 15 41  1  0
 16 42  1  0
 19 43  1  0
 21 44  1  0
 22 45  1  0
 22 46  1  0
 22 47  1  0
 24 48  1  0
 24 49  1  0
 25 50  1  0
 26 51  1  0
M  END
>  <meeko>  (1) 
{"is_sidechain": false}

>  <smiles>  (1) 
C=CC(=O)Nc1ccc(NC2CCCC(Nc3ncc(NC)s3)C2)cc1

>  <vina_score>  (1) 
-7.982

>  <job_id>  (1) 
a6ae46c281b78590

$$$$
