
     RDKit          3D

 62 67  0  0  0  0  0  0  0  0999 V2000
   62.4120   86.0430   36.0980 O   0  0  0  0  0  0  0  0  0  0  0  0
   62.1180   84.8950   35.7880 C   0  0  0  0  0  0  0  0  0  0  0  0
   62.2720   83.8670   36.6840 N   0  0  0  0  0  0  0  0  0  0  0  0
   61.5600   82.6170   36.5150 C   0  0  0  0  0  0  0  0  0  0  0  0
   61.6140   82.0440   35.0620 C   0  0  0  0  0  0  0  0  0  0  0  0
   60.5170   80.9490   34.9600 C   0  0  0  0  0  0  0  0  0  0  0  0
   60.7710   79.7560   35.8860 C   0  0  0  0  0  0  0  0  0  0  0  0
   62.2390   79.3340   35.9460 C   0  0  0  0  0  0  0  0  0  0  0  0
   63.0600   79.9100   34.8010 C   0  0  0  0  0  0  0  0  0  0  0  0
   63.0190   81.4420   34.7710 C   0  0  0  0  0  0  0  0  0  0  0  0
   61.3690   83.1760   34.1390 N   0  0  0  0  0  0  0  0  0  0  0  0
   61.6110   84.4920   34.5020 C   0  0  0  0  0  0  0  0  0  0  0  0
   61.3030   85.2840   33.4090 C   0  0  0  0  0  0  0  0  0  0  0  0
   60.9300   84.4290   32.3470 C   0  0  0  0  0  0  0  0  0  0  0  0
   60.5550   84.5800   31.0200 C   0  0  0  0  0  0  0  0  0  0  0  0
   60.2960   83.4840   30.2710 N   0  0  0  0  0  0  0  0  0  0  0  0
   60.4160   82.2580   30.8190 C   0  0  0  0  0  0  0  0  0  0  0  0
   60.1650   81.1190   30.0730 N   0  0  0  0  0  0  0  0  0  0  0  0
   59.0400   80.3820   29.7580 C   0  0  0  0  0  0  0  0  0  0  0  0
   58.1580   79.8560   30.6960 C   0  0  0  0  0  0  0  0  0  0  0  0
   57.0500   79.1140   30.2750 C   0  0  0  0  0  0  0  0  0  0  0  0
   56.8550   78.9030   28.9150 C   0  0  0  0  0  0  0  0  0  0  0  0
   55.7060   78.1530   28.3770 C   0  0  0  0  0  0  0  0  0  0  0  0
   55.5420   77.0010   28.7750 O   0  0  0  0  0  0  0  0  0  0  0  0
   54.8620   78.7630   27.4570 N   0  0  0  0  0  0  0  0  0  0  0  0
   53.7990   77.9540   26.8580 C   0  0  0  0  0  0  0  0  0  0  0  0
   53.2340   78.5930   25.5780 C   0  0  0  0  0  0  0  0  0  0  0  0
   52.7460   79.9760   25.7300 N   0  0  0  0  0  0  0  0  0  0  0  0
   53.3350   80.6550   26.8950 C   0  0  0  0  0  0  0  0  0  0  0  0
   54.7730   80.2120   27.2240 C   0  0  0  0  0  0  0  0  0  0  0  0
   57.7510   79.4840   28.0370 C   0  0  0  0  0  0  0  0  0  0  0  0
   58.8370   80.1990   28.4320 N   0  0  0  0  0  0  0  0  0  0  0  0
   60.7690   82.0230   32.0940 N   0  0  0  0  0  0  0  0  0  0  0  0
   61.0030   83.1280   32.8150 C   0  0  0  0  0  0  0  0  0  0  0  0
   62.5060   84.1880   37.6170 H   0  0  0  0  0  0  0  0  0  0  0  0
   62.0001   81.8738   37.1961 H   0  0  0  0  0  0  0  0  0  0  0  0
   60.5021   82.8218   36.7364 H   0  0  0  0  0  0  0  0  0  0  0  0
   59.5485   81.3980   35.2252 H   0  0  0  0  0  0  0  0  0  0  0  0
   60.5265   80.5704   33.9272 H   0  0  0  0  0  0  0  0  0  0  0  0
   60.4446   80.0270   36.9009 H   0  0  0  0  0  0  0  0  0  0  0  0
   60.2053   78.9044   35.4800 H   0  0  0  0  0  0  0  0  0  0  0  0
   62.6674   79.6828   36.8972 H   0  0  0  0  0  0  0  0  0  0  0  0
   62.2745   78.2377   35.8634 H   0  0  0  0  0  0  0  0  0  0  0  0
   64.1048   79.5860   34.9166 H   0  0  0  0  0  0  0  0  0  0  0  0
   62.6282   79.5426   33.8583 H   0  0  0  0  0  0  0  0  0  0  0  0
   63.7213   81.8216   35.5278 H   0  0  0  0  0  0  0  0  0  0  0  0
   63.2904   81.7474   33.7497 H   0  0  0  0  0  0  0  0  0  0  0  0
   61.3417   86.3827   33.3734 H   0  0  0  0  0  0  0  0  0  0  0  0
   60.4689   85.5844   30.5798 H   0  0  0  0  0  0  0  0  0  0  0  0
   61.0060   80.7390   29.6690 H   0  0  0  0  0  0  0  0  0  0  0  0
   58.3320   80.0237   31.7691 H   0  0  0  0  0  0  0  0  0  0  0  0
   56.3424   78.7029   31.0100 H   0  0  0  0  0  0  0  0  0  0  0  0
   54.2057   76.9627   26.6093 H   0  0  0  0  0  0  0  0  0  0  0  0
   52.9796   77.8789   27.5881 H   0  0  0  0  0  0  0  0  0  0  0  0
   54.0296   78.5943   24.8184 H   0  0  0  0  0  0  0  0  0  0  0  0
   52.3587   77.9895   25.2960 H   0  0  0  0  0  0  0  0  0  0  0  0
   51.7310   79.9740   25.8290 H   0  0  0  0  0  0  0  0  0  0  0  0
   53.3445   81.7367   26.6954 H   0  0  0  0  0  0  0  0  0  0  0  0
   52.7153   80.3871   27.7635 H   0  0  0  0  0  0  0  0  0  0  0  0
   55.4282   80.4773   26.3812 H   0  0  0  0  0  0  0  0  0  0  0  0
   55.0845   80.7247   28.1460 H   0  0  0  0  0  0  0  0  0  0  0  0
   57.5750   79.3606   26.9582 H   0  0  0  0  0  0  0  0  0  0  0  0
  1  2  2  0
  2  3  1  0
  3  4  1  0
  4  5  1  0
  5  6  1  0
  6  7  1  0
  7  8  1  0
  8  9  1  0
  9 10  1  0
  5 11  1  0
 11 12  1  0
 12 13  2  0
 13 14  1  0
 14 15  2  0
 15 16  1  0
 16 17  2  0
 17 18  1  0
 18 19  1  0
 19 20  2  0
 20 21  1  0
 21 22  2  0
 22 23  1  0
 23 24  2  0
 23 25  1  0
 25 26  1  0
 26 27  1  0
 27 28  1  0
 28 29  1  0
 29 30  1  0
 22 31  1  0
 31 32  2  0
 17 33  1  0
 33 34  2  0
 12  2  1  0
 34 14  1  0
 10  5  1  0
 34 11  1  0
 32 19  1  0
 30 25  1  0
  3 35  1  0
  4 36  1  0
  4 37  1  0
  6 38  1  0
  6 39  1  0
  7 40  1  0
  7 41  1  0
  8 42  1  0
  8 43  1  0
  9 44  1  0
  9 45  1  0
 10 46  1  0
 10 47  1  0
 13 48  1  0
 15 49  1  0
 18 50  1  0
 20 51  1  0
 21 52  1  0
 26 53  1  0
 26 54  1  0
 27 55  1  0
 27 56  1  0
 28 57  1  0
 29 58  1  0
 29 59  1  0
 30 60  1  0
 30 61  1  0
 31 62  1  0
M  END
>  <meeko>  (1) 
{"is_sidechain": false}

>  <smiles>  (1) 
O=C1NCC2(CCCCC2)n2c1cc1cnc(Nc3ccc(C(=O)N4CCNCC4)cn3)nc12

>  <vina_score>  (1) 
-8.358

>  <job_id>  (1) 
a6d97d516433cc90

$$$$
