
     RDKit          3D

 41 43  0  0  0  0  0  0  0  0999 V2000
   63.0890   85.1430   34.1410 C   0  0  0  0  0  0  0  0  0  0  0  0
   61.6910   84.8950   33.7980 N   0  0  0  0  0  0  0  0  0  0  0  0
   61.4430   85.0580   32.3500 C   0  0  0  0  0  0  0  0  0  0  0  0
   61.3900   83.7500   31.5240 C   0  0  0  0  0  0  0  0  0  0  0  0
   60.3870   82.8190   32.0660 N   0  0  0  0  0  0  0  0  0  0  0  0
   59.7850   81.8560   31.2760 C   0  0  0  0  0  0  0  0  0  0  0  0
   58.9990   80.8330   31.8220 C   0  0  0  0  0  0  0  0  0  0  0  0
   58.3850   79.8570   31.0200 C   0  0  0  0  0  0  0  0  0  0  0  0
   58.5270   79.8630   29.6300 C   0  0  0  0  0  0  0  0  0  0  0  0
   57.9150   78.8470   28.8790 N   0  0  0  0  0  0  0  0  0  0  0  0
   56.5650   78.5590   28.6000 C   0  0  0  0  0  0  0  0  0  0  0  0
   55.9350   77.5440   29.3410 C   0  0  0  0  0  0  0  0  0  0  0  0
   54.5840   77.2330   29.1460 C   0  0  0  0  0  0  0  0  0  0  0  0
   53.8340   77.9360   28.2060 C   0  0  0  0  0  0  0  0  0  0  0  0
   54.4360   78.9450   27.4620 C   0  0  0  0  0  0  0  0  0  0  0  0
   55.7840   79.2510   27.6620 C   0  0  0  0  0  0  0  0  0  0  0  0
   56.3230   80.2020   26.8850 F   0  0  0  0  0  0  0  0  0  0  0  0
   59.3170   80.8670   29.0750 C   0  0  0  0  0  0  0  0  0  0  0  0
   59.9250   81.8430   29.8820 C   0  0  0  0  0  0  0  0  0  0  0  0
   60.0690   82.9610   33.4980 C   0  0  0  0  0  0  0  0  0  0  0  0
   61.2720   83.5560   34.2670 C   0  0  0  0  0  0  0  0  0  0  0  0
   63.2001   85.1627   35.2352 H   0  0  0  0  0  0  0  0  0  0  0  0
   63.7167   84.3422   33.7231 H   0  0  0  0  0  0  0  0  0  0  0  0
   63.4030   86.1109   33.7231 H   0  0  0  0  0  0  0  0  0  0  0  0
   60.4786   85.5730   32.2287 H   0  0  0  0  0  0  0  0  0  0  0  0
   62.3036   85.6221   31.9612 H   0  0  0  0  0  0  0  0  0  0  0  0
   61.1288   83.9930   30.4834 H   0  0  0  0  0  0  0  0  0  0  0  0
   62.3768   83.2665   31.5732 H   0  0  0  0  0  0  0  0  0  0  0  0
   58.8584   80.7929   32.9122 H   0  0  0  0  0  0  0  0  0  0  0  0
   57.7797   79.0715   31.4961 H   0  0  0  0  0  0  0  0  0  0  0  0
   58.5600   78.1240   28.5820 H   0  0  0  0  0  0  0  0  0  0  0  0
   56.5149   76.9831   30.0887 H   0  0  0  0  0  0  0  0  0  0  0  0
   54.1141   76.4323   29.7360 H   0  0  0  0  0  0  0  0  0  0  0  0
   52.7718   77.6945   28.0531 H   0  0  0  0  0  0  0  0  0  0  0  0
   53.8504   79.5022   26.7159 H   0  0  0  0  0  0  0  0  0  0  0  0
   59.4674   80.8962   27.9857 H   0  0  0  0  0  0  0  0  0  0  0  0
   60.5325   82.6247   29.4025 H   0  0  0  0  0  0  0  0  0  0  0  0
   59.2019   83.6283   33.6112 H   0  0  0  0  0  0  0  0  0  0  0  0
   59.8411   81.9671   33.9107 H   0  0  0  0  0  0  0  0  0  0  0  0
   60.9979   83.6331   35.3295 H   0  0  0  0  0  0  0  0  0  0  0  0
   62.1226   82.8805   34.0935 H   0  0  0  0  0  0  0  0  0  0  0  0
  1  2  1  0
  2  3  1  0
  3  4  1  0
  4  5  1  0
  5  6  1  0
  6  7  1  0
  7  8  2  0
  8  9  1  0
  9 10  1  0
 10 11  1  0
 11 12  2  0
 12 13  1  0
 13 14  2  0
 14 15  1  0
 15 16  2  0
 16 17  1  0
  9 18  2  0
 18 19  1  0
  5 20  1  0
 20 21  1  0
 21  2  1  0
 19  6  2  0
 16 11  1  0
  1 22  1  0
  1 23  1  0
  1 24  1  0
  3 25  1  0
  3 26  1  0
  4 27  1  0
  4 28  1  0
  7 29  1  0
  8 30  1  0
 10 31  1  0
 12 32  1  0
 13 33  1  0
 14 34  1  0
 15 35  1  0
 18 36  1  0
 19 37  1  0
 20 38  1  0
 20 39  1  0
 21 40  1  0
 21 41  1  0
M  END
>  <meeko>  (1) 
{"is_sidechain": false}

>  <smiles>  (1) 
CN1CCN(c2ccc(Nc3ccccc3F)cc2)CC1

>  <vina_score>  (1) 
-7.573

>  <job_id>  (1) 
a7063fb7f7dab3c2

$$$$
