
     RDKit          3D

 36 37  0  0  0  0  0  0  0  0999 V2000
   49.5860   81.3390   22.3140 N   0  0  0  0  0  0  0  0  0  0  0  0
   51.0650   81.8160   21.6630 S   0  0  0  0  0  0  0  0  0  0  0  0
   50.9530   83.2000   21.2700 O   0  0  0  0  0  0  0  0  0  0  0  0
   51.4350   80.7700   20.7370 O   0  0  0  0  0  0  0  0  0  0  0  0
   52.1220   81.7170   23.0810 C   0  0  0  0  0  0  0  0  0  0  0  0
   52.7580   80.5130   23.3930 C   0  0  0  0  0  0  0  0  0  0  0  0
   53.5910   80.4470   24.5110 C   0  0  0  0  0  0  0  0  0  0  0  0
   53.7920   81.5780   25.3170 C   0  0  0  0  0  0  0  0  0  0  0  0
   54.7130   81.5090   26.5110 C   0  0  0  0  0  0  0  0  0  0  0  0
   55.5830   80.2520   26.4830 C   0  0  0  0  0  0  0  0  0  0  0  0
   55.7070   79.6370   27.8790 C   0  0  0  0  0  0  0  0  0  0  0  0
   54.8580   78.3980   28.0200 C   0  0  0  0  0  0  0  0  0  0  0  0
   53.7020   78.2370   27.2420 C   0  0  0  0  0  0  0  0  0  0  0  0
   52.9260   77.0830   27.3610 C   0  0  0  0  0  0  0  0  0  0  0  0
   53.3100   76.0900   28.2540 C   0  0  0  0  0  0  0  0  0  0  0  0
   52.5640   74.9820   28.3680 F   0  0  0  0  0  0  0  0  0  0  0  0
   54.4540   76.2260   29.0290 C   0  0  0  0  0  0  0  0  0  0  0  0
   55.2310   77.3810   28.9110 C   0  0  0  0  0  0  0  0  0  0  0  0
   53.1600   82.7840   24.9790 C   0  0  0  0  0  0  0  0  0  0  0  0
   52.3260   82.8570   23.8630 C   0  0  0  0  0  0  0  0  0  0  0  0
   48.8030   81.4800   21.6770 H   0  0  0  0  0  0  0  0  0  0  0  0
   49.4470   81.8250   23.2020 H   0  0  0  0  0  0  0  0  0  0  0  0
   52.6036   79.6246   22.7630 H   0  0  0  0  0  0  0  0  0  0  0  0
   54.0937   79.5014   24.7622 H   0  0  0  0  0  0  0  0  0  0  0  0
   55.3658   82.3943   26.5091 H   0  0  0  0  0  0  0  0  0  0  0  0
   54.0940   81.4771   27.4198 H   0  0  0  0  0  0  0  0  0  0  0  0
   55.1280   79.5151   25.8048 H   0  0  0  0  0  0  0  0  0  0  0  0
   56.5881   80.5302   26.1331 H   0  0  0  0  0  0  0  0  0  0  0  0
   56.7590   79.3708   28.0591 H   0  0  0  0  0  0  0  0  0  0  0  0
   55.3569   80.3781   28.6126 H   0  0  0  0  0  0  0  0  0  0  0  0
   53.4053   79.0248   26.5340 H   0  0  0  0  0  0  0  0  0  0  0  0
   52.0177   76.9605   26.7527 H   0  0  0  0  0  0  0  0  0  0  0  0
   54.7462   75.4306   29.7304 H   0  0  0  0  0  0  0  0  0  0  0  0
   56.1401   77.4934   29.5200 H   0  0  0  0  0  0  0  0  0  0  0  0
   53.3232   83.6784   25.5983 H   0  0  0  0  0  0  0  0  0  0  0  0
   51.8328   83.8046   23.6007 H   0  0  0  0  0  0  0  0  0  0  0  0
  1  2  1  0
  2  3  2  0
  2  4  2  0
  2  5  1  0
  5  6  1  0
  6  7  2  0
  7  8  1  0
  8  9  1  0
  9 10  1  0
 10 11  1  0
 11 12  1  0
 12 13  1  0
 13 14  2  0
 14 15  1  0
 15 16  1  0
 15 17  2  0
 17 18  1  0
  8 19  2  0
 19 20  1  0
 20  5  2  0
 18 12  2  0
  1 21  1  0
  1 22  1  0
  6 23  1  0
  7 24  1  0
  9 25  1  0
  9 26  1  0
 10 27  1  0
 10 28  1  0
 11 29  1  0
 11 30  1  0
 13 31  1  0
 14 32  1  0
 17 33  1  0
 18 34  1  0
 19 35  1  0
 20 36  1  0
M  END
>  <meeko>  (1) 
{"is_sidechain": false}

>  <smiles>  (1) 
NS(=O)(=O)c1ccc(CCCc2ccc(F)cc2)cc1

>  <vina_score>  (1) 
-7.834

>  <job_id>  (1) 
a734613a6a4097c4

$$$$
