
     RDKit          3D

 70 72  0  0  0  0  0  0  0  0999 V2000
   61.8060   79.8710   34.0180 C   0  0  0  0  0  0  0  0  0  0  0  0
   61.1280   80.8640   34.9190 C   0  0  0  0  0  0  0  0  0  0  0  0
   59.6840   80.5560   35.2180 C   0  0  0  0  0  0  0  0  0  0  0  0
   61.7110   81.9660   35.4210 C   0  0  0  0  0  0  0  0  0  0  0  0
   62.9910   82.4270   35.2310 N   0  0  0  0  0  0  0  0  0  0  0  0
   63.2050   83.4600   34.3250 N   0  0  0  0  0  0  0  0  0  0  0  0
   63.7850   82.8520   32.8950 S   0  0  0  0  0  0  0  0  0  0  0  0
   62.9880   84.0210   31.6770 C   0  0  2  0  0  0  0  0  0  0  0  0
   62.0060   83.2320   30.9660 N   0  0  0  0  0  0  0  0  0  0  0  0
   60.8110   82.8830   31.5500 C   0  0  0  0  0  0  0  0  0  0  0  0
   60.3900   83.3780   32.5890 O   0  0  0  0  0  0  0  0  0  0  0  0
   60.0500   81.7970   30.8730 C   0  0  0  0  0  0  0  0  0  0  0  0
   59.3090   80.8530   31.5880 C   0  0  0  0  0  0  0  0  0  0  0  0
   58.5850   79.8630   30.9100 C   0  0  0  0  0  0  0  0  0  0  0  0
   58.5850   79.7900   29.5140 C   0  0  0  0  0  0  0  0  0  0  0  0
   57.8650   78.8420   28.7830 N   0  0  0  0  0  0  0  0  0  0  0  0
   56.5230   78.4800   28.7250 C   0  0  0  0  0  0  0  0  0  0  0  0
   55.9430   77.7260   29.6750 N   0  0  0  0  0  0  0  0  0  0  0  0
   54.6460   77.3970   29.5020 C   0  0  0  0  0  0  0  0  0  0  0  0
   53.9050   77.7970   28.4230 C   0  0  0  0  0  0  0  0  0  0  0  0
   52.6210   77.4390   28.2960 F   0  0  0  0  0  0  0  0  0  0  0  0
   54.5620   78.5900   27.5100 C   0  0  0  0  0  0  0  0  0  0  0  0
   53.9240   79.0800   26.2930 C   0  0  0  0  0  0  0  0  0  0  0  0
   53.3090   78.3600   25.2880 C   0  0  0  0  0  0  0  0  0  0  0  0
   52.8820   79.1700   24.2790 N   0  0  0  0  0  0  0  0  0  0  0  0
   53.2140   80.3950   24.6310 C   0  0  0  0  0  0  0  0  0  0  0  0
   52.9460   81.5850   23.7830 C   0  0  0  0  0  0  0  0  0  0  0  0
   53.8080   80.4050   25.8820 N   0  0  0  0  0  0  0  0  0  0  0  0
   54.2010   81.5710   26.6760 C   0  0  0  0  0  0  0  0  0  0  0  0
   53.0780   82.5870   26.9000 C   0  0  0  0  0  0  0  0  0  0  0  0
   55.4680   82.2360   26.1380 C   0  0  0  0  0  0  0  0  0  0  0  0
   55.8640   78.9350   27.6460 N   0  0  0  0  0  0  0  0  0  0  0  0
   59.3490   80.7380   28.8120 C   0  0  0  0  0  0  0  0  0  0  0  0
   60.0820   81.7250   29.4800 C   0  0  0  0  0  0  0  0  0  0  0  0
   64.1010   84.6100   30.7690 C   0  0  1  0  0  0  0  0  0  0  0  0
   65.5040   84.4040   31.3260 C   0  0  0  0  0  0  0  0  0  0  0  0
   64.0880   84.0060   29.4650 O   0  0  0  0  0  0  0  0  0  0  0  0
   62.3221   79.1151   34.6281 H   0  0  0  0  0  0  0  0  0  0  0  0
   61.0544   79.3790   33.3832 H   0  0  0  0  0  0  0  0  0  0  0  0
   62.5379   80.3919   33.3832 H   0  0  0  0  0  0  0  0  0  0  0  0
   59.5338   80.5240   36.3072 H   0  0  0  0  0  0  0  0  0  0  0  0
   59.0445   81.3379   34.7825 H   0  0  0  0  0  0  0  0  0  0  0  0
   59.4192   79.5812   34.7825 H   0  0  0  0  0  0  0  0  0  0  0  0
   61.0761   82.5835   36.0735 H   0  0  0  0  0  0  0  0  0  0  0  0
   63.5930   82.4040   36.0550 H   0  0  0  0  0  0  0  0  0  0  0  0
   63.8440   84.1600   34.7160 H   0  0  0  0  0  0  0  0  0  0  0  0
   62.4825   84.8824   32.1380 H   0  0  0  0  0  0  0  0  0  0  0  0
   62.4530   82.5160   30.3980 H   0  0  0  0  0  0  0  0  0  0  0  0
   59.2937   80.8869   32.6874 H   0  0  0  0  0  0  0  0  0  0  0  0
   58.0050   79.1285   31.4880 H   0  0  0  0  0  0  0  0  0  0  0  0
   58.4060   78.1700   28.2550 H   0  0  0  0  0  0  0  0  0  0  0  0
   54.1590   76.7752   30.2676 H   0  0  0  0  0  0  0  0  0  0  0  0
   53.1798   77.2677   25.3004 H   0  0  0  0  0  0  0  0  0  0  0  0
   52.7498   82.4562   24.4252 H   0  0  0  0  0  0  0  0  0  0  0  0
   53.8211   81.7873   23.1479 H   0  0  0  0  0  0  0  0  0  0  0  0
   52.0687   81.3926   23.1479 H   0  0  0  0  0  0  0  0  0  0  0  0
   54.4318   81.1678   27.6730 H   0  0  0  0  0  0  0  0  0  0  0  0
   52.9216   82.7285   27.9796 H   0  0  0  0  0  0  0  0  0  0  0  0
   53.3553   83.5473   26.4407 H   0  0  0  0  0  0  0  0  0  0  0  0
   52.1502   82.2152   26.4407 H   0  0  0  0  0  0  0  0  0  0  0  0
   56.0951   82.5651   26.9797 H   0  0  0  0  0  0  0  0  0  0  0  0
   56.0277   81.5154   25.5236 H   0  0  0  0  0  0  0  0  0  0  0  0
   55.1929   83.1060   25.5236 H   0  0  0  0  0  0  0  0  0  0  0  0
   59.3712   80.7032   27.7128 H   0  0  0  0  0  0  0  0  0  0  0  0
   60.6841   82.4449   28.9063 H   0  0  0  0  0  0  0  0  0  0  0  0
   63.8767   85.6857   30.7194 H   0  0  0  0  0  0  0  0  0  0  0  0
   65.4665   84.4095   32.4253 H   0  0  0  0  0  0  0  0  0  0  0  0
   65.8988   83.4383   30.9774 H   0  0  0  0  0  0  0  0  0  0  0  0
   66.1597   85.2155   30.9774 H   0  0  0  0  0  0  0  0  0  0  0  0
   63.7600   84.6840   28.8450 H   0  0  0  0  0  0  0  0  0  0  0  0
  1  2  1  0
  2  3  1  0
  2  4  2  3
  4  5  1  0
  5  6  1  0
  6  7  1  0
  7  8  1  0
  8  9  1  0
  9 10  1  0
 10 11  2  0
 10 12  1  0
 12 13  1  0
 13 14  2  0
 14 15  1  0
 15 16  1  0
 16 17  1  0
 17 18  2  0
 18 19  1  0
 19 20  2  0
 20 21  1  0
 20 22  1  0
 22 23  1  0
 23 24  2  0
 24 25  1  0
 25 26  2  0
 26 27  1  0
 26 28  1  0
 28 29  1  0
 29 30  1  0
 29 31  1  0
 22 32  2  0
 15 33  2  0
 33 34  1  0
  8 35  1  0
 35 36  1  0
 35 37  1  0
 34 12  2  0
 32 17  1  0
 28 23  1  0
  1 38  1  0
  1 39  1  0
  1 40  1  0
  3 41  1  0
  3 42  1  0
  3 43  1  0
  4 44  1  0
  5 45  1  0
  6 46  1  0
  8 47  1  1
  9 48  1  0
 13 49  1  0
 14 50  1  0
 16 51  1  0
 19 52  1  0
 24 53  1  0
 27 54  1  0
 27 55  1  0
 27 56  1  0
 29 57  1  0
 30 58  1  0
 30 59  1  0
 30 60  1  0
 31 61  1  0
 31 62  1  0
 31 63  1  0
 33 64  1  0
 34 65  1  0
 35 66  1  6
 36 67  1  0
 36 68  1  0
 36 69  1  0
 37 70  1  0
M  END
>  <meeko>  (1) 
{"is_sidechain": false}

>  <smiles>  (1) 
CC(C)=CNNS[C@H](NC(=O)c1ccc(Nc2ncc(F)c(-c3cnc(C)n3C(C)C)n2)cc1)[C@@H](C)O

>  <vina_score>  (1) 
-8.482

>  <job_id>  (1) 
a82aebe6d1a46f82

$$$$
