
     RDKit          3D

 58 59  0  0  0  0  0  0  0  0999 V2000
   55.0900   84.1930   26.1450 C   0  0  0  0  0  0  0  0  0  0  0  0
   55.6220   82.7650   26.1750 C   0  0  1  0  0  0  0  0  0  0  0  0
   56.6850   82.6950   27.1290 O   0  0  0  0  0  0  0  0  0  0  0  0
   54.5320   81.7130   26.4960 C   0  0  1  0  0  0  0  0  0  0  0  0
   53.2470   82.0020   25.7180 C   0  0  0  0  0  0  0  0  0  0  0  0
   54.9530   80.3990   26.0940 O   0  0  0  0  0  0  0  0  0  0  0  0
   55.3640   79.5370   27.0850 C   0  0  0  0  0  0  0  0  0  0  0  0
   56.5780   79.7060   27.6450 N   0  0  0  0  0  0  0  0  0  0  0  0
   56.9530   78.8310   28.5900 C   0  0  0  0  0  0  0  0  0  0  0  0
   58.2100   79.0610   29.1390 N   0  0  0  0  0  0  0  0  0  0  0  0
   58.7920   80.1350   29.8210 C   0  0  0  0  0  0  0  0  0  0  0  0
   59.5830   81.1140   29.2090 C   0  0  0  0  0  0  0  0  0  0  0  0
   60.1510   82.1590   29.9470 C   0  0  0  0  0  0  0  0  0  0  0  0
   59.9170   82.2460   31.3180 C   0  0  0  0  0  0  0  0  0  0  0  0
   60.6670   83.5430   32.2690 S   0  0  0  0  0  0  0  0  0  0  0  0
   60.9630   84.6120   31.3270 O   0  0  0  0  0  0  0  0  0  0  0  0
   59.7990   83.8430   33.3930 O   0  0  0  0  0  0  0  0  0  0  0  0
   62.2080   82.9530   32.9030 C   0  0  2  0  0  0  0  0  0  0  0  0
   62.3740   83.2550   34.3900 C   0  0  0  0  0  0  0  0  0  0  0  0
   63.5900   83.5290   31.9500 S   0  0  0  0  0  0  0  0  0  0  0  0
   63.8990   84.8860   32.3710 O   0  0  0  0  0  0  0  0  0  0  0  0
   63.3840   83.2430   30.5450 O   0  0  0  0  0  0  0  0  0  0  0  0
   64.9830   82.5050   32.5190 C   0  0  1  0  0  0  0  0  0  0  0  0
   65.6850   81.8080   31.3670 C   0  0  0  0  0  0  0  0  0  0  0  0
   65.9790   83.2320   33.2700 O   0  0  0  0  0  0  0  0  0  0  0  0
   59.1620   81.2660   31.9620 C   0  0  0  0  0  0  0  0  0  0  0  0
   58.6020   80.2260   31.2120 C   0  0  0  0  0  0  0  0  0  0  0  0
   56.1780   77.8140   28.9830 N   0  0  0  0  0  0  0  0  0  0  0  0
   54.9740   77.6780   28.3930 C   0  0  0  0  0  0  0  0  0  0  0  0
   54.5060   78.5230   27.4200 C   0  0  0  0  0  0  0  0  0  0  0  0
   53.1810   78.3460   26.7820 C   0  0  0  0  0  0  0  0  0  0  0  0
   52.3070   79.3520   27.0580 F   0  0  0  0  0  0  0  0  0  0  0  0
   53.2440   78.2470   25.4270 F   0  0  0  0  0  0  0  0  0  0  0  0
   52.5500   77.2050   27.1920 F   0  0  0  0  0  0  0  0  0  0  0  0
   54.9549   84.5557   27.1747 H   0  0  0  0  0  0  0  0  0  0  0  0
   55.8072   84.8405   25.6193 H   0  0  0  0  0  0  0  0  0  0  0  0
   54.1239   84.2134   25.6193 H   0  0  0  0  0  0  0  0  0  0  0  0
   55.9871   82.5190   25.1670 H   0  0  0  0  0  0  0  0  0  0  0  0
   57.3020   83.4230   26.9450 H   0  0  0  0  0  0  0  0  0  0  0  0
   54.3610   81.7632   27.5815 H   0  0  0  0  0  0  0  0  0  0  0  0
   52.4244   82.1870   26.4245 H   0  0  0  0  0  0  0  0  0  0  0  0
   53.3934   82.8897   25.0850 H   0  0  0  0  0  0  0  0  0  0  0  0
   52.9992   81.1371   25.0850 H   0  0  0  0  0  0  0  0  0  0  0  0
   58.7690   78.2270   29.0400 H   0  0  0  0  0  0  0  0  0  0  0  0
   59.7622   81.0611   28.1250 H   0  0  0  0  0  0  0  0  0  0  0  0
   60.7803   82.9094   29.4462 H   0  0  0  0  0  0  0  0  0  0  0  0
   62.1879   81.8578   32.8025 H   0  0  0  0  0  0  0  0  0  0  0  0
   61.9272   82.4422   34.9813 H   0  0  0  0  0  0  0  0  0  0  0  0
   63.4443   83.3376   34.6301 H   0  0  0  0  0  0  0  0  0  0  0  0
   61.8701   84.2029   34.6301 H   0  0  0  0  0  0  0  0  0  0  0  0
   64.5137   81.7684   33.1877 H   0  0  0  0  0  0  0  0  0  0  0  0
   66.4128   81.0853   31.7645 H   0  0  0  0  0  0  0  0  0  0  0  0
   64.9425   81.2795   30.7510 H   0  0  0  0  0  0  0  0  0  0  0  0
   66.2082   82.5542   30.7510 H   0  0  0  0  0  0  0  0  0  0  0  0
   65.5560   83.4960   34.1110 H   0  0  0  0  0  0  0  0  0  0  0  0
   59.0081   81.3103   33.0503 H   0  0  0  0  0  0  0  0  0  0  0  0
   57.9985   79.4609   31.7224 H   0  0  0  0  0  0  0  0  0  0  0  0
   54.3314   76.8432   28.7095 H   0  0  0  0  0  0  0  0  0  0  0  0
  1  2  1  0
  2  3  1  0
  2  4  1  0
  4  5  1  0
  4  6  1  0
  6  7  1  0
  7  8  2  0
  8  9  1  0
  9 10  1  0
 10 11  1  0
 11 12  1  0
 12 13  2  0
 13 14  1  0
 14 15  1  0
 15 16  2  0
 15 17  2  0
 15 18  1  0
 18 19  1  0
 18 20  1  0
 20 21  2  0
 20 22  2  0
 20 23  1  0
 23 24  1  0
 23 25  1  0
 14 26  2  0
 26 27  1  0
  9 28  2  0
 28 29  1  0
 29 30  2  0
 30 31  1  0
 31 32  1  0
 31 33  1  0
 31 34  1  0
 30  7  1  0
 27 11  2  0
  1 35  1  0
  1 36  1  0
  1 37  1  0
  2 38  1  6
  3 39  1  0
  4 40  1  1
  5 41  1  0
  5 42  1  0
  5 43  1  0
 10 44  1  0
 12 45  1  0
 13 46  1  0
 18 47  1  1
 19 48  1  0
 19 49  1  0
 19 50  1  0
 23 51  1  1
 24 52  1  0
 24 53  1  0
 24 54  1  0
 25 55  1  0
 26 56  1  0
 27 57  1  0
 29 58  1  0
M  END
>  <meeko>  (1) 
{"is_sidechain": false}

>  <smiles>  (1) 
C[C@@H](O)[C@@H](C)Oc1nc(Nc2ccc(S(=O)(=O)[C@H](C)S(=O)(=O)[C@@H](C)O)cc2)ncc1C(F)(F)F

>  <vina_score>  (1) 
-8.169

>  <job_id>  (1) 
a82b8cccdd6b09d2

$$$$
