
     RDKit          3D

 61 63  0  0  0  0  0  0  0  0999 V2000
   55.4850   82.7210   26.8910 C   0  0  0  0  0  0  0  0  0  0  0  0
   54.9150   81.7320   25.8800 C   0  0  1  0  0  0  0  0  0  0  0  0
   56.0110   81.0000   25.3230 O   0  0  0  0  0  0  0  0  0  0  0  0
   53.8390   80.7660   26.4610 C   0  0  1  0  0  0  0  0  0  0  0  0
   52.4620   80.9940   25.8300 C   0  0  0  0  0  0  0  0  0  0  0  0
   54.2580   79.3680   26.2680 N   0  0  0  0  0  0  0  0  0  0  0  0
   54.8660   78.7090   27.3540 C   0  0  0  0  0  0  0  0  0  0  0  0
   56.1180   79.0520   27.7190 N   0  0  0  0  0  0  0  0  0  0  0  0
   56.6760   78.4520   28.7850 C   0  0  0  0  0  0  0  0  0  0  0  0
   57.9660   78.8790   29.0850 N   0  0  0  0  0  0  0  0  0  0  0  0
   58.4990   79.8630   29.9230 C   0  0  0  0  0  0  0  0  0  0  0  0
   59.4370   80.7630   29.3870 C   0  0  0  0  0  0  0  0  0  0  0  0
   60.0090   81.7750   30.1640 C   0  0  0  0  0  0  0  0  0  0  0  0
   59.6450   81.8920   31.5030 C   0  0  0  0  0  0  0  0  0  0  0  0
   60.3190   83.1800   32.4860 S   0  0  0  0  0  0  0  0  0  0  0  0
   59.8030   83.0910   33.8330 O   0  0  0  0  0  0  0  0  0  0  0  0
   59.8430   85.0020   31.7110 S   0  0  0  0  0  0  0  0  0  0  0  0
   62.0070   82.9480   32.6500 N   0  0  0  0  0  0  0  0  0  0  0  0
   62.8790   83.8140   31.9430 C   0  0  0  0  0  0  0  0  0  0  0  0
   63.2940   83.5220   30.6380 C   0  0  0  0  0  0  0  0  0  0  0  0
   64.1890   84.3640   29.9740 C   0  0  0  0  0  0  0  0  0  0  0  0
   64.6790   85.5000   30.6230 C   0  0  0  0  0  0  0  0  0  0  0  0
   65.7950   86.5740   29.7710 S   0  0  0  0  0  0  0  0  0  0  0  0
   66.8080   85.7730   29.1010 O   0  0  0  0  0  0  0  0  0  0  0  0
   66.8100   87.7400   31.1480 S   0  0  0  0  0  0  0  0  0  0  0  0
   64.7060   87.7520   28.3960 S   0  0  0  0  0  0  0  0  0  0  0  0
   63.3760   87.9650   28.9470 O   0  0  0  0  0  0  0  0  0  0  0  0
   65.5580   88.8790   28.0470 O   0  0  0  0  0  0  0  0  0  0  0  0
   64.5540   86.7830   27.0520 O   0  0  0  0  0  0  0  0  0  0  0  0
   64.9820   87.3800   25.7710 N   0  0  0  0  0  0  0  0  0  0  0  0
   64.2910   85.7920   31.9330 C   0  0  0  0  0  0  0  0  0  0  0  0
   63.3940   84.9440   32.5880 C   0  0  0  0  0  0  0  0  0  0  0  0
   58.7110   81.0220   32.0620 C   0  0  0  0  0  0  0  0  0  0  0  0
   58.1470   80.0140   31.2700 C   0  0  0  0  0  0  0  0  0  0  0  0
   56.0490   77.5200   29.5130 N   0  0  0  0  0  0  0  0  0  0  0  0
   54.7960   77.1960   29.1430 C   0  0  0  0  0  0  0  0  0  0  0  0
   54.1500   77.7610   28.0710 C   0  0  0  0  0  0  0  0  0  0  0  0
   52.3940   77.2250   27.6290 Br  0  0  0  0  0  0  0  0  0  0  0  0
   55.2787   82.3631   27.9105 H   0  0  0  0  0  0  0  0  0  0  0  0
   56.5719   82.8082   26.7459 H   0  0  0  0  0  0  0  0  0  0  0  0
   55.0156   83.7052   26.7459 H   0  0  0  0  0  0  0  0  0  0  0  0
   54.3799   82.3071   25.1100 H   0  0  0  0  0  0  0  0  0  0  0  0
   55.8090   80.0530   25.4090 H   0  0  0  0  0  0  0  0  0  0  0  0
   53.7496   80.9784   27.5366 H   0  0  0  0  0  0  0  0  0  0  0  0
   51.7109   81.1184   26.6240 H   0  0  0  0  0  0  0  0  0  0  0  0
   52.4898   81.8998   25.2064 H   0  0  0  0  0  0  0  0  0  0  0  0
   52.1964   80.1276   25.2064 H   0  0  0  0  0  0  0  0  0  0  0  0
   54.8300   79.2260   25.4380 H   0  0  0  0  0  0  0  0  0  0  0  0
   58.6210   78.3260   28.5510 H   0  0  0  0  0  0  0  0  0  0  0  0
   59.7280   80.6686   28.3304 H   0  0  0  0  0  0  0  0  0  0  0  0
   60.7380   82.4706   29.7227 H   0  0  0  0  0  0  0  0  0  0  0  0
   62.1830   83.1060   33.6390 H   0  0  0  0  0  0  0  0  0  0  0  0
   62.9124   82.6229   30.1320 H   0  0  0  0  0  0  0  0  0  0  0  0
   64.5062   84.1340   28.9461 H   0  0  0  0  0  0  0  0  0  0  0  0
   64.8120   86.6170   25.1170 H   0  0  0  0  0  0  0  0  0  0  0  0
   64.2500   88.0760   25.6160 H   0  0  0  0  0  0  0  0  0  0  0  0
   64.6880   86.6814   32.4442 H   0  0  0  0  0  0  0  0  0  0  0  0
   63.0896   85.1670   33.6212 H   0  0  0  0  0  0  0  0  0  0  0  0
   58.4189   81.1262   33.1174 H   0  0  0  0  0  0  0  0  0  0  0  0
   57.4124   79.3268   31.7151 H   0  0  0  0  0  0  0  0  0  0  0  0
   54.2601   76.4369   29.7317 H   0  0  0  0  0  0  0  0  0  0  0  0
  1  2  1  0
  2  3  1  0
  2  4  1  0
  4  5  1  0
  4  6  1  0
  6  7  1  0
  7  8  2  0
  8  9  1  0
  9 10  1  0
 10 11  1  0
 11 12  1  0
 12 13  2  0
 13 14  1  0
 14 15  1  0
 15 16  2  0
 15 17  2  0
 15 18  1  0
 18 19  1  0
 19 20  1  0
 20 21  2  0
 21 22  1  0
 22 23  1  0
 23 24  2  0
 23 25  2  0
 23 26  1  0
 26 27  2  0
 26 28  2  0
 26 29  1  0
 29 30  1  0
 22 31  2  0
 31 32  1  0
 14 33  2  0
 33 34  1  0
  9 35  2  0
 35 36  1  0
 36 37  2  0
 37 38  1  0
 37  7  1  0
 34 11  2  0
 32 19  2  0
  1 39  1  0
  1 40  1  0
  1 41  1  0
  2 42  1  6
  3 43  1  0
  4 44  1  1
  5 45  1  0
  5 46  1  0
  5 47  1  0
  6 48  1  0
 10 49  1  0
 12 50  1  0
 13 51  1  0
 18 52  1  0
 20 53  1  0
 21 54  1  0
 30 55  1  0
 30 56  1  0
 31 57  1  0
 32 58  1  0
 33 59  1  0
 34 60  1  0
 36 61  1  0
M  END
>  <meeko>  (1) 
{"is_sidechain": false}

>  <smiles>  (1) 
C[C@@H](O)[C@@H](C)Nc1nc(Nc2ccc(S(=O)(=S)Nc3ccc(S(=O)(=S)S(=O)(=O)ON)cc3)cc2)ncc1Br

>  <vina_score>  (1) 
-7.522

>  <job_id>  (1) 
a848906986575b1a

$$$$
