
     RDKit          3D

 40 41  0  0  0  0  0  0  0  0999 V2000
   53.6870   78.3580   24.6590 C   0  0  0  0  0  0  0  0  0  0  0  0
   53.5360   79.7460   25.2150 C   0  0  0  0  0  0  0  0  0  0  0  0
   52.7050   80.6250   24.4850 C   0  0  0  0  0  0  0  0  0  0  0  0
   52.4080   81.9040   24.9510 C   0  0  0  0  0  0  0  0  0  0  0  0
   52.9350   82.3310   26.1610 C   0  0  0  0  0  0  0  0  0  0  0  0
   53.7780   81.4860   26.8820 C   0  0  0  0  0  0  0  0  0  0  0  0
   54.1220   80.2050   26.4070 C   0  0  0  0  0  0  0  0  0  0  0  0
   55.0180   79.4970   27.2330 N   0  0  0  0  0  0  0  0  0  0  0  0
   54.7700   78.4740   28.1350 C   0  0  0  0  0  0  0  0  0  0  0  0
   53.6950   77.9560   28.4090 O   0  0  0  0  0  0  0  0  0  0  0  0
   56.0720   78.0070   28.8060 C   0  0  0  0  0  0  0  0  0  0  0  0
   57.2090   78.8040   28.2950 N   0  0  0  0  0  0  0  0  0  0  0  0
   57.9860   79.5320   29.2100 C   0  0  0  0  0  0  0  0  0  0  0  0
   58.8970   80.4720   28.6980 C   0  0  0  0  0  0  0  0  0  0  0  0
   59.6560   81.2890   29.5410 C   0  0  0  0  0  0  0  0  0  0  0  0
   59.4780   81.1990   30.9180 C   0  0  0  0  0  0  0  0  0  0  0  0
   60.4410   82.2240   32.0020 S   0  0  0  0  0  0  0  0  0  0  0  0
   61.7190   82.8470   30.9420 C   0  0  0  0  0  0  0  0  0  0  0  0
   59.6060   83.3390   32.4070 O   0  0  0  0  0  0  0  0  0  0  0  0
   61.0570   81.3580   32.9900 O   0  0  0  0  0  0  0  0  0  0  0  0
   58.5640   80.2940   31.4550 C   0  0  0  0  0  0  0  0  0  0  0  0
   57.8100   79.4830   30.5980 C   0  0  0  0  0  0  0  0  0  0  0  0
   53.7653   77.6379   25.4868 H   0  0  0  0  0  0  0  0  0  0  0  0
   52.8102   78.1129   24.0416 H   0  0  0  0  0  0  0  0  0  0  0  0
   54.5960   78.3072   24.0416 H   0  0  0  0  0  0  0  0  0  0  0  0
   52.2824   80.2916   23.5257 H   0  0  0  0  0  0  0  0  0  0  0  0
   51.7599   82.5707   24.3633 H   0  0  0  0  0  0  0  0  0  0  0  0
   52.6894   83.3304   26.5495 H   0  0  0  0  0  0  0  0  0  0  0  0
   54.1844   81.8280   27.8453 H   0  0  0  0  0  0  0  0  0  0  0  0
   56.0060   79.5610   26.9950 H   0  0  0  0  0  0  0  0  0  0  0  0
   55.9911   78.1414   29.8947 H   0  0  0  0  0  0  0  0  0  0  0  0
   56.2395   76.9442   28.5769 H   0  0  0  0  0  0  0  0  0  0  0  0
   57.8190   78.2180   27.7200 H   0  0  0  0  0  0  0  0  0  0  0  0
   59.0155   80.5670   27.6085 H   0  0  0  0  0  0  0  0  0  0  0  0
   60.3864   81.9957   29.1201 H   0  0  0  0  0  0  0  0  0  0  0  0
   62.5404   83.2474   31.5543 H   0  0  0  0  0  0  0  0  0  0  0  0
   62.0982   82.0327   30.3071 H   0  0  0  0  0  0  0  0  0  0  0  0
   61.3111   83.6473   30.3071 H   0  0  0  0  0  0  0  0  0  0  0  0
   58.4359   80.2174   32.5448 H   0  0  0  0  0  0  0  0  0  0  0  0
   57.0652   78.7943   31.0234 H   0  0  0  0  0  0  0  0  0  0  0  0
  1  2  1  0
  2  3  2  0
  3  4  1  0
  4  5  2  0
  5  6  1  0
  6  7  2  0
  7  8  1  0
  8  9  1  0
  9 10  2  0
  9 11  1  0
 11 12  1  0
 12 13  1  0
 13 14  1  0
 14 15  2  0
 15 16  1  0
 16 17  1  0
 17 18  1  0
 17 19  2  0
 17 20  2  0
 16 21  2  0
 21 22  1  0
  7  2  1  0
 22 13  2  0
  1 23  1  0
  1 24  1  0
  1 25  1  0
  3 26  1  0
  4 27  1  0
  5 28  1  0
  6 29  1  0
  8 30  1  0
 11 31  1  0
 11 32  1  0
 12 33  1  0
 14 34  1  0
 15 35  1  0
 18 36  1  0
 18 37  1  0
 18 38  1  0
 21 39  1  0
 22 40  1  0
M  END
>  <meeko>  (1) 
{"is_sidechain": false}

>  <smiles>  (1) 
Cc1ccccc1NC(=O)CNc1ccc(S(C)(=O)=O)cc1

>  <vina_score>  (1) 
-7.397

>  <job_id>  (1) 
a893ad166a920db9

$$$$
