
     RDKit          3D

 57 58  0  0  0  0  0  0  0  0999 V2000
   60.9650   85.9380   31.5080 C   0  0  0  0  0  0  0  0  0  0  0  0
   59.7620   85.0440   31.8410 C   0  0  2  0  0  0  0  0  0  0  0  0
   58.6830   85.8450   32.6120 C   0  0  1  0  0  0  0  0  0  0  0  0
   58.3820   87.2280   32.0400 C   0  0  0  0  0  0  0  0  0  0  0  0
   57.4350   85.1060   32.8300 N   0  0  0  0  0  0  0  0  0  0  0  0
   60.3410   83.5240   32.6250 S   0  0  0  0  0  0  0  0  0  0  0  0
   59.6860   83.3830   34.0200 N   0  0  0  0  0  0  0  0  0  0  0  0
   61.7790   83.4410   32.4410 O   0  0  0  0  0  0  0  0  0  0  0  0
   59.6890   82.2120   31.5980 C   0  0  0  0  0  0  0  0  0  0  0  0
   58.8220   81.2500   32.1120 C   0  0  0  0  0  0  0  0  0  0  0  0
   58.3490   80.2320   31.2760 C   0  0  0  0  0  0  0  0  0  0  0  0
   58.7410   80.1420   29.9290 C   0  0  0  0  0  0  0  0  0  0  0  0
   58.2130   79.1070   29.1500 N   0  0  0  0  0  0  0  0  0  0  0  0
   56.9630   78.8560   28.5920 C   0  0  0  0  0  0  0  0  0  0  0  0
   56.2190   77.8030   28.9520 N   0  0  0  0  0  0  0  0  0  0  0  0
   55.0270   77.6400   28.3460 C   0  0  0  0  0  0  0  0  0  0  0  0
   54.5420   78.4910   27.3850 C   0  0  0  0  0  0  0  0  0  0  0  0
   53.2310   78.2890   26.7280 C   0  0  0  0  0  0  0  0  0  0  0  0
   53.3310   78.0900   25.3840 F   0  0  0  0  0  0  0  0  0  0  0  0
   52.3810   79.3370   26.8950 F   0  0  0  0  0  0  0  0  0  0  0  0
   52.5610   77.2000   27.2050 F   0  0  0  0  0  0  0  0  0  0  0  0
   55.3660   79.5450   27.0890 C   0  0  0  0  0  0  0  0  0  0  0  0
   54.9420   80.4140   26.1060 O   0  0  0  0  0  0  0  0  0  0  0  0
   54.5410   81.7290   26.5320 C   0  0  2  0  0  0  0  0  0  0  0  0
   53.2850   82.0690   25.7290 C   0  0  0  0  0  0  0  0  0  0  0  0
   55.6750   82.7350   26.2360 C   0  0  1  0  0  0  0  0  0  0  0  0
   55.1940   84.1770   26.1440 C   0  0  0  0  0  0  0  0  0  0  0  0
   56.6850   82.6720   27.2480 O   0  0  0  0  0  0  0  0  0  0  0  0
   56.5680   79.7380   27.6620 N   0  0  0  0  0  0  0  0  0  0  0  0
   59.6280   81.1100   29.4450 C   0  0  0  0  0  0  0  0  0  0  0  0
   60.1090   82.1330   30.2690 C   0  0  0  0  0  0  0  0  0  0  0  0
   61.4328   86.2857   32.4409 H   0  0  0  0  0  0  0  0  0  0  0  0
   61.6977   85.3635   30.9223 H   0  0  0  0  0  0  0  0  0  0  0  0
   60.6263   86.8053   30.9223 H   0  0  0  0  0  0  0  0  0  0  0  0
   59.2419   84.7156   30.9290 H   0  0  0  0  0  0  0  0  0  0  0  0
   59.1589   86.0005   33.5915 H   0  0  0  0  0  0  0  0  0  0  0  0
   58.2271   87.9399   32.8642 H   0  0  0  0  0  0  0  0  0  0  0  0
   59.2286   87.5613   31.4218 H   0  0  0  0  0  0  0  0  0  0  0  0
   57.4734   87.1793   31.4218 H   0  0  0  0  0  0  0  0  0  0  0  0
   57.1610   85.1450   33.8100 H   0  0  0  0  0  0  0  0  0  0  0  0
   56.6810   85.5850   32.3150 H   0  0  0  0  0  0  0  0  0  0  0  0
   60.1130   82.5990   34.5190 H   0  0  0  0  0  0  0  0  0  0  0  0
   58.5117   81.2903   33.1666 H   0  0  0  0  0  0  0  0  0  0  0  0
   57.6531   79.4837   31.6832 H   0  0  0  0  0  0  0  0  0  0  0  0
   58.8500   78.3740   28.8720 H   0  0  0  0  0  0  0  0  0  0  0  0
   54.4089   76.7780   28.6373 H   0  0  0  0  0  0  0  0  0  0  0  0
   54.3369   81.7716   27.6121 H   0  0  0  0  0  0  0  0  0  0  0  0
   52.4581   82.2928   26.4190 H   0  0  0  0  0  0  0  0  0  0  0  0
   53.4814   82.9463   25.0952 H   0  0  0  0  0  0  0  0  0  0  0  0
   53.0120   81.2124   25.0952 H   0  0  0  0  0  0  0  0  0  0  0  0
   56.0777   82.4408   25.2555 H   0  0  0  0  0  0  0  0  0  0  0  0
   55.0584   84.5836   27.1570 H   0  0  0  0  0  0  0  0  0  0  0  0
   55.9401   84.7787   25.6042 H   0  0  0  0  0  0  0  0  0  0  0  0
   54.2361   84.2103   25.6042 H   0  0  0  0  0  0  0  0  0  0  0  0
   57.3790   83.3080   26.9940 H   0  0  0  0  0  0  0  0  0  0  0  0
   59.9537   81.0656   28.3952 H   0  0  0  0  0  0  0  0  0  0  0  0
   60.8173   82.8742   29.8703 H   0  0  0  0  0  0  0  0  0  0  0  0
  1  2  1  0
  2  3  1  0
  3  4  1  0
  3  5  1  0
  2  6  1  0
  6  7  2  0
  6  8  2  0
  6  9  1  0
  9 10  1  0
 10 11  2  0
 11 12  1  0
 12 13  1  0
 13 14  1  0
 14 15  2  0
 15 16  1  0
 16 17  2  0
 17 18  1  0
 18 19  1  0
 18 20  1  0
 18 21  1  0
 17 22  1  0
 22 23  1  0
 23 24  1  0
 24 25  1  0
 24 26  1  0
 26 27  1  0
 26 28  1  0
 22 29  2  0
 12 30  2  0
 30 31  1  0
 31  9  2  0
 29 14  1  0
  1 32  1  0
  1 33  1  0
  1 34  1  0
  2 35  1  6
  3 36  1  1
  4 37  1  0
  4 38  1  0
  4 39  1  0
  5 40  1  0
  5 41  1  0
  7 42  1  0
 10 43  1  0
 11 44  1  0
 13 45  1  0
 16 46  1  0
 24 47  1  1
 25 48  1  0
 25 49  1  0
 25 50  1  0
 26 51  1  6
 27 52  1  0
 27 53  1  0
 27 54  1  0
 28 55  1  0
 30 56  1  0
 31 57  1  0
M  END
>  <meeko>  (1) 
{"is_sidechain": false}

>  <smiles>  (1) 
C[C@H]([C@@H](C)N)S(=N)(=O)c1ccc(Nc2ncc(C(F)(F)F)c(O[C@H](C)[C@@H](C)O)n2)cc1

>  <vina_score>  (1) 
-8.150

>  <job_id>  (1) 
a8f1ebbf7cabfecd

$$$$
