
     RDKit          3D

 37 38  0  0  0  0  0  0  0  0999 V2000
   52.1850   75.3960   26.5200 C   0  0  0  0  0  0  0  0  0  0  0  0
   52.1600   76.2550   27.6520 O   0  0  0  0  0  0  0  0  0  0  0  0
   53.3600   76.7530   28.0780 C   0  0  0  0  0  0  0  0  0  0  0  0
   53.6450   78.0470   27.6440 C   0  0  0  0  0  0  0  0  0  0  0  0
   54.8400   78.6820   28.0050 C   0  0  0  0  0  0  0  0  0  0  0  0
   55.7690   78.0250   28.8100 C   0  0  0  0  0  0  0  0  0  0  0  0
   56.9930   78.5850   29.2260 N   0  0  0  0  0  0  0  0  0  0  0  0
   57.7300   79.5750   28.5970 C   0  0  0  0  0  0  0  0  0  0  0  0
   57.4320   80.1540   27.5550 O   0  0  0  0  0  0  0  0  0  0  0  0
   58.9900   79.9670   29.3590 C   0  0  0  0  0  0  0  0  0  0  0  0
   58.7600   80.9890   30.4480 C   0  0  0  0  0  0  0  0  0  0  0  0
   58.7460   82.3560   30.1480 C   0  0  0  0  0  0  0  0  0  0  0  0
   58.5500   83.2950   31.1590 C   0  0  0  0  0  0  0  0  0  0  0  0
   58.3610   82.8810   32.4810 C   0  0  0  0  0  0  0  0  0  0  0  0
   58.3650   81.5220   32.7950 C   0  0  0  0  0  0  0  0  0  0  0  0
   58.1960   80.9830   34.0410 O   0  0  0  0  0  0  0  0  0  0  0  0
   59.3760   80.6320   34.7540 C   0  0  0  0  0  0  0  0  0  0  0  0
   58.5630   80.5840   31.7760 C   0  0  0  0  0  0  0  0  0  0  0  0
   55.4790   76.7270   29.2480 C   0  0  0  0  0  0  0  0  0  0  0  0
   54.2830   76.0930   28.8850 C   0  0  0  0  0  0  0  0  0  0  0  0
   52.2155   74.3487   26.8550 H   0  0  0  0  0  0  0  0  0  0  0  0
   51.2817   75.5611   25.9144 H   0  0  0  0  0  0  0  0  0  0  0  0
   53.0772   75.6134   25.9144 H   0  0  0  0  0  0  0  0  0  0  0  0
   52.9204   78.5771   27.0085 H   0  0  0  0  0  0  0  0  0  0  0  0
   55.0462   79.7032   27.6519 H   0  0  0  0  0  0  0  0  0  0  0  0
   57.4070   78.1750   30.0540 H   0  0  0  0  0  0  0  0  0  0  0  0
   59.4113   79.0610   29.8190 H   0  0  0  0  0  0  0  0  0  0  0  0
   59.6710   80.4292   28.6292 H   0  0  0  0  0  0  0  0  0  0  0  0
   58.8903   82.6906   29.1101 H   0  0  0  0  0  0  0  0  0  0  0  0
   58.5440   84.3677   30.9156 H   0  0  0  0  0  0  0  0  0  0  0  0
   58.2090   83.6278   33.2742 H   0  0  0  0  0  0  0  0  0  0  0  0
   59.1819   80.6897   35.8352 H   0  0  0  0  0  0  0  0  0  0  0  0
   59.6732   79.6066   34.4890 H   0  0  0  0  0  0  0  0  0  0  0  0
   60.1853   81.3283   34.4890 H   0  0  0  0  0  0  0  0  0  0  0  0
   58.5642   79.5115   32.0205 H   0  0  0  0  0  0  0  0  0  0  0  0
   56.2009   76.1969   29.8867 H   0  0  0  0  0  0  0  0  0  0  0  0
   54.0732   75.0726   29.2381 H   0  0  0  0  0  0  0  0  0  0  0  0
  1  2  1  0
  2  3  1  0
  3  4  1  0
  4  5  2  0
  5  6  1  0
  6  7  1  0
  7  8  1  0
  8  9  2  0
  8 10  1  0
 10 11  1  0
 11 12  2  0
 12 13  1  0
 13 14  2  0
 14 15  1  0
 15 16  1  0
 16 17  1  0
 15 18  2  0
  6 19  2  0
 19 20  1  0
 20  3  2  0
 18 11  1  0
  1 21  1  0
  1 22  1  0
  1 23  1  0
  4 24  1  0
  5 25  1  0
  7 26  1  0
 10 27  1  0
 10 28  1  0
 12 29  1  0
 13 30  1  0
 14 31  1  0
 17 32  1  0
 17 33  1  0
 17 34  1  0
 18 35  1  0
 19 36  1  0
 20 37  1  0
M  END
>  <meeko>  (1) 
{"is_sidechain": false}

>  <smiles>  (1) 
COc1ccc(NC(=O)Cc2cccc(OC)c2)cc1

>  <vina_score>  (1) 
-7.483

>  <job_id>  (1) 
a99f1c1e178f44f0

$$$$
