
     RDKit          3D

 49 51  0  0  0  0  0  0  0  0999 V2000
   62.1030   79.8560   34.1530 C   0  0  0  0  0  0  0  0  0  0  0  0
   60.7740   80.0480   33.4490 C   0  0  0  0  0  0  0  0  0  0  0  0
   59.7380   81.2490   34.2880 S   0  0  0  0  0  0  0  0  0  0  0  0
   59.3100   80.6070   35.6310 N   0  0  0  0  0  0  0  0  0  0  0  0
   60.4110   82.5320   34.2230 O   0  0  0  0  0  0  0  0  0  0  0  0
   58.2460   81.3410   33.2840 C   0  0  0  0  0  0  0  0  0  0  0  0
   58.5490   81.1360   31.8220 C   0  0  0  0  0  0  0  0  0  0  0  0
   59.3980   82.0040   31.1310 C   0  0  0  0  0  0  0  0  0  0  0  0
   59.6570   81.7870   29.7850 C   0  0  0  0  0  0  0  0  0  0  0  0
   60.4800   82.6210   29.1340 F   0  0  0  0  0  0  0  0  0  0  0  0
   59.0810   80.7220   29.0980 C   0  0  0  0  0  0  0  0  0  0  0  0
   58.2120   79.8450   29.7490 C   0  0  0  0  0  0  0  0  0  0  0  0
   57.6140   78.7380   29.1360 N   0  0  0  0  0  0  0  0  0  0  0  0
   56.3000   78.4130   28.8090 C   0  0  0  0  0  0  0  0  0  0  0  0
   55.6990   77.5670   29.6640 N   0  0  0  0  0  0  0  0  0  0  0  0
   54.4290   77.2080   29.3790 C   0  0  0  0  0  0  0  0  0  0  0  0
   53.7400   77.6600   28.2840 C   0  0  0  0  0  0  0  0  0  0  0  0
   52.4970   77.2290   28.0340 F   0  0  0  0  0  0  0  0  0  0  0  0
   54.4170   78.5350   27.4620 C   0  0  0  0  0  0  0  0  0  0  0  0
   53.8330   79.1130   26.2380 C   0  0  0  0  0  0  0  0  0  0  0  0
   53.8560   78.3560   25.0460 C   0  0  0  0  0  0  0  0  0  0  0  0
   53.3100   78.8510   23.8640 C   0  0  0  0  0  0  0  0  0  0  0  0
   52.7410   80.1140   23.8600 C   0  0  0  0  0  0  0  0  0  0  0  0
   52.2140   80.5960   22.7260 F   0  0  0  0  0  0  0  0  0  0  0  0
   52.7140   80.8970   25.0090 C   0  0  0  0  0  0  0  0  0  0  0  0
   53.2620   80.4090   26.2020 C   0  0  0  0  0  0  0  0  0  0  0  0
   53.3170   81.1310   27.3690 O   0  0  0  0  0  0  0  0  0  0  0  0
   53.3100   82.5490   27.2710 C   0  0  0  0  0  0  0  0  0  0  0  0
   55.7030   78.8980   27.7110 N   0  0  0  0  0  0  0  0  0  0  0  0
   57.9620   80.0680   31.1160 C   0  0  0  0  0  0  0  0  0  0  0  0
   61.9478   79.8784   35.2418 H   0  0  0  0  0  0  0  0  0  0  0  0
   62.5343   78.8862   33.8640 H   0  0  0  0  0  0  0  0  0  0  0  0
   62.7911   80.6641   33.8640 H   0  0  0  0  0  0  0  0  0  0  0  0
   60.9625   80.3965   32.4228 H   0  0  0  0  0  0  0  0  0  0  0  0
   60.2458   79.0831   33.4501 H   0  0  0  0  0  0  0  0  0  0  0  0
   58.8330   81.2880   36.2250 H   0  0  0  0  0  0  0  0  0  0  0  0
   57.5436   80.5622   33.6158 H   0  0  0  0  0  0  0  0  0  0  0  0
   57.8084   82.3426   33.4081 H   0  0  0  0  0  0  0  0  0  0  0  0
   59.8594   82.8560   31.6517 H   0  0  0  0  0  0  0  0  0  0  0  0
   59.3126   80.5704   28.0334 H   0  0  0  0  0  0  0  0  0  0  0  0
   58.2000   77.9390   28.9430 H   0  0  0  0  0  0  0  0  0  0  0  0
   53.9191   76.5143   30.0637 H   0  0  0  0  0  0  0  0  0  0  0  0
   54.3140   77.3559   25.0511 H   0  0  0  0  0  0  0  0  0  0  0  0
   53.3304   78.2465   22.9452 H   0  0  0  0  0  0  0  0  0  0  0  0
   52.2623   81.8996   24.9809 H   0  0  0  0  0  0  0  0  0  0  0  0
   53.3078   82.9863   28.2803 H   0  0  0  0  0  0  0  0  0  0  0  0
   54.2065   82.8835   26.7284 H   0  0  0  0  0  0  0  0  0  0  0  0
   52.4102   82.8746   26.7284 H   0  0  0  0  0  0  0  0  0  0  0  0
   57.2855   79.3853   31.6509 H   0  0  0  0  0  0  0  0  0  0  0  0
  1  2  1  0
  2  3  1  0
  3  4  2  0
  3  5  2  0
  3  6  1  0
  6  7  1  0
  7  8  2  0
  8  9  1  0
  9 10  1  0
  9 11  2  0
 11 12  1  0
 12 13  1  0
 13 14  1  0
 14 15  2  0
 15 16  1  0
 16 17  2  0
 17 18  1  0
 17 19  1  0
 19 20  1  0
 20 21  1  0
 21 22  2  0
 22 23  1  0
 23 24  1  0
 23 25  2  0
 25 26  1  0
 26 27  1  0
 27 28  1  0
 19 29  2  0
 12 30  2  0
 30  7  1  0
 29 14  1  0
 26 20  2  0
  1 31  1  0
  1 32  1  0
  1 33  1  0
  2 34  1  0
  2 35  1  0
  4 36  1  0
  6 37  1  0
  6 38  1  0
  8 39  1  0
 11 40  1  0
 13 41  1  0
 16 42  1  0
 21 43  1  0
 22 44  1  0
 25 45  1  0
 28 46  1  0
 28 47  1  0
 28 48  1  0
 30 49  1  0
M  END
>  <meeko>  (1) 
{"is_sidechain": false}

>  <smiles>  (1) 
CCS(=N)(=O)Cc1cc(F)cc(Nc2ncc(F)c(-c3ccc(F)cc3OC)n2)c1

>  <vina_score>  (1) 
-9.160

>  <job_id>  (1) 
aa050c9cc19d9ba5

$$$$
