
     RDKit          3D

 60 63  0  0  0  0  0  0  0  0999 V2000
   66.5840   82.8380   30.6460 C   0  0  0  0  0  0  0  0  0  0  0  0
   65.3170   82.1180   30.6450 N   0  0  0  0  0  0  0  0  0  0  0  0
   64.2390   82.9050   31.2450 C   0  0  1  0  0  0  0  0  0  0  0  0
   63.7550   84.0020   30.2890 C   0  0  0  0  0  0  0  0  0  0  0  0
   62.4180   84.4150   30.8930 C   0  0  0  0  0  0  0  0  0  0  0  0
   61.9120   83.2050   31.5280 N   0  0  0  0  0  0  0  0  0  0  0  0
   60.6010   82.9090   31.8450 C   0  0  0  0  0  0  0  0  0  0  0  0
   59.9860   83.4630   32.7530 O   0  0  0  0  0  0  0  0  0  0  0  0
   59.9060   81.8610   31.0640 C   0  0  0  0  0  0  0  0  0  0  0  0
   59.8810   81.8970   29.6700 C   0  0  0  0  0  0  0  0  0  0  0  0
   59.2030   80.8980   28.9650 C   0  0  0  0  0  0  0  0  0  0  0  0
   58.5240   79.8590   29.6300 C   0  0  0  0  0  0  0  0  0  0  0  0
   57.8820   78.8860   28.8580 N   0  0  0  0  0  0  0  0  0  0  0  0
   56.5640   78.4570   28.7390 C   0  0  0  0  0  0  0  0  0  0  0  0
   55.9880   77.6560   29.6510 N   0  0  0  0  0  0  0  0  0  0  0  0
   54.7010   77.3000   29.4480 C   0  0  0  0  0  0  0  0  0  0  0  0
   53.9730   77.7060   28.3630 C   0  0  0  0  0  0  0  0  0  0  0  0
   52.7020   77.3250   28.1940 F   0  0  0  0  0  0  0  0  0  0  0  0
   54.6410   78.5120   27.4720 C   0  0  0  0  0  0  0  0  0  0  0  0
   54.0210   79.0440   26.2710 C   0  0  0  0  0  0  0  0  0  0  0  0
   53.3840   78.3590   25.2580 C   0  0  0  0  0  0  0  0  0  0  0  0
   52.9410   79.2070   24.2870 N   0  0  0  0  0  0  0  0  0  0  0  0
   53.2610   80.4210   24.6870 C   0  0  0  0  0  0  0  0  0  0  0  0
   52.9280   81.6440   23.9140 C   0  0  0  0  0  0  0  0  0  0  0  0
   53.9070   80.3810   25.9120 N   0  0  0  0  0  0  0  0  0  0  0  0
   54.3570   81.5110   26.7250 C   0  0  0  0  0  0  0  0  0  0  0  0
   53.2470   82.5070   27.0650 C   0  0  0  0  0  0  0  0  0  0  0  0
   55.5860   82.2050   26.1380 C   0  0  0  0  0  0  0  0  0  0  0  0
   55.9260   78.8990   27.6430 N   0  0  0  0  0  0  0  0  0  0  0  0
   58.5490   79.8580   31.0290 C   0  0  0  0  0  0  0  0  0  0  0  0
   59.2230   80.8550   31.7450 C   0  0  0  0  0  0  0  0  0  0  0  0
   62.9260   82.1620   31.5400 C   0  0  0  0  0  0  0  0  0  0  0  0
   66.9022   83.0188   31.6833 H   0  0  0  0  0  0  0  0  0  0  0  0
   67.3468   82.2385   30.1277 H   0  0  0  0  0  0  0  0  0  0  0  0
   66.4594   83.8002   30.1277 H   0  0  0  0  0  0  0  0  0  0  0  0
   65.0690   81.8790   29.6850 H   0  0  0  0  0  0  0  0  0  0  0  0
   64.7180   83.2432   32.1757 H   0  0  0  0  0  0  0  0  0  0  0  0
   64.4581   84.8477   30.2687 H   0  0  0  0  0  0  0  0  0  0  0  0
   63.6741   83.6639   29.2454 H   0  0  0  0  0  0  0  0  0  0  0  0
   62.5578   85.2141   31.6359 H   0  0  0  0  0  0  0  0  0  0  0  0
   61.7236   84.8112   30.1375 H   0  0  0  0  0  0  0  0  0  0  0  0
   60.3918   82.7067   29.1283 H   0  0  0  0  0  0  0  0  0  0  0  0
   59.1999   80.9243   27.8653 H   0  0  0  0  0  0  0  0  0  0  0  0
   58.4440   78.3970   28.1760 H   0  0  0  0  0  0  0  0  0  0  0  0
   54.2142   76.6518   30.1915 H   0  0  0  0  0  0  0  0  0  0  0  0
   53.2503   77.2674   25.2362 H   0  0  0  0  0  0  0  0  0  0  0  0
   52.7039   82.4671   24.6085 H   0  0  0  0  0  0  0  0  0  0  0  0
   53.7833   81.9215   23.2804 H   0  0  0  0  0  0  0  0  0  0  0  0
   52.0501   81.4496   23.2804 H   0  0  0  0  0  0  0  0  0  0  0  0
   54.6633   81.0665   27.6834 H   0  0  0  0  0  0  0  0  0  0  0  0
   53.1525   82.5918   28.1576 H   0  0  0  0  0  0  0  0  0  0  0  0
   53.4950   83.4912   26.6409 H   0  0  0  0  0  0  0  0  0  0  0  0
   52.2953   82.1543   26.6409 H   0  0  0  0  0  0  0  0  0  0  0  0
   56.2276   82.5673   26.9548 H   0  0  0  0  0  0  0  0  0  0  0  0
   56.1490   81.4915   25.5184 H   0  0  0  0  0  0  0  0  0  0  0  0
   55.2658   83.0556   25.5184 H   0  0  0  0  0  0  0  0  0  0  0  0
   58.0291   79.0585   31.5771 H   0  0  0  0  0  0  0  0  0  0  0  0
   59.2134   80.8441   32.8449 H   0  0  0  0  0  0  0  0  0  0  0  0
   62.9685   81.6712   32.5235 H   0  0  0  0  0  0  0  0  0  0  0  0
   62.7196   81.3669   30.8084 H   0  0  0  0  0  0  0  0  0  0  0  0
  1  2  1  0
  2  3  1  0
  3  4  1  0
  4  5  1  0
  5  6  1  0
  6  7  1  0
  7  8  2  0
  7  9  1  0
  9 10  1  0
 10 11  2  0
 11 12  1  0
 12 13  1  0
 13 14  1  0
 14 15  2  0
 15 16  1  0
 16 17  2  0
 17 18  1  0
 17 19  1  0
 19 20  1  0
 20 21  2  0
 21 22  1  0
 22 23  2  0
 23 24  1  0
 23 25  1  0
 25 26  1  0
 26 27  1  0
 26 28  1  0
 19 29  2  0
 12 30  2  0
 30 31  1  0
  6 32  1  0
 32  3  1  0
 31  9  2  0
 29 14  1  0
 25 20  1  0
  1 33  1  0
  1 34  1  0
  1 35  1  0
  2 36  1  0
  3 37  1  1
  4 38  1  0
  4 39  1  0
  5 40  1  0
  5 41  1  0
 10 42  1  0
 11 43  1  0
 13 44  1  0
 16 45  1  0
 21 46  1  0
 24 47  1  0
 24 48  1  0
 24 49  1  0
 26 50  1  0
 27 51  1  0
 27 52  1  0
 27 53  1  0
 28 54  1  0
 28 55  1  0
 28 56  1  0
 30 57  1  0
 31 58  1  0
 32 59  1  0
 32 60  1  0
M  END
>  <meeko>  (1) 
{"is_sidechain": false}

>  <smiles>  (1) 
CN[C@H]1CCN(C(=O)c2ccc(Nc3ncc(F)c(-c4cnc(C)n4C(C)C)n3)cc2)C1

>  <vina_score>  (1) 
-9.284

>  <job_id>  (1) 
aaa2882c0a62cdde

$$$$
