
     RDKit          3D

 44 45  0  0  0  0  0  0  0  0999 V2000
   52.1810   74.9830   26.1560 C   0  0  0  0  0  0  0  0  0  0  0  0
   51.9900   75.7410   27.3520 O   0  0  0  0  0  0  0  0  0  0  0  0
   52.7790   76.8470   27.4410 C   0  0  0  0  0  0  0  0  0  0  0  0
   52.5600   77.8890   26.8440 O   0  0  0  0  0  0  0  0  0  0  0  0
   53.8070   76.5600   28.2920 N   0  0  0  0  0  0  0  0  0  0  0  0
   54.8700   77.3890   28.6930 C   0  0  0  0  0  0  0  0  0  0  0  0
   55.5600   77.2310   29.8910 C   0  0  0  0  0  0  0  0  0  0  0  0
   56.6090   78.0970   30.2170 C   0  0  0  0  0  0  0  0  0  0  0  0
   56.9930   79.1410   29.3570 C   0  0  0  0  0  0  0  0  0  0  0  0
   58.1090   80.0210   29.7500 C   0  0  0  0  0  0  0  0  0  0  0  0
   58.8900   80.6680   28.7760 C   0  0  0  0  0  0  0  0  0  0  0  0
   59.9420   81.5130   29.1410 C   0  0  0  0  0  0  0  0  0  0  0  0
   60.2130   81.7360   30.4950 C   0  0  0  0  0  0  0  0  0  0  0  0
   61.3390   82.6060   30.9080 C   0  0  0  0  0  0  0  0  0  0  0  0
   62.4440   82.0840   31.0330 O   0  0  0  0  0  0  0  0  0  0  0  0
   61.1030   83.9640   31.1150 N   0  0  0  0  0  0  0  0  0  0  0  0
   62.2450   84.8250   31.3700 C   0  0  0  0  0  0  0  0  0  0  0  0
   59.7940   84.5440   31.3860 C   0  0  0  0  0  0  0  0  0  0  0  0
   59.4650   81.0840   31.4770 C   0  0  0  0  0  0  0  0  0  0  0  0
   58.4150   80.2410   31.1040 C   0  0  0  0  0  0  0  0  0  0  0  0
   56.2890   79.3010   28.1440 C   0  0  0  0  0  0  0  0  0  0  0  0
   56.6920   80.3420   27.3440 O   0  0  0  0  0  0  0  0  0  0  0  0
   55.8900   80.6730   26.2200 C   0  0  0  0  0  0  0  0  0  0  0  0
   55.2400   78.4250   27.8240 C   0  0  0  0  0  0  0  0  0  0  0  0
   52.4421   73.9467   26.4165 H   0  0  0  0  0  0  0  0  0  0  0  0
   51.2530   74.9899   25.5654 H   0  0  0  0  0  0  0  0  0  0  0  0
   52.9949   75.4288   25.5654 H   0  0  0  0  0  0  0  0  0  0  0  0
   53.7680   75.6200   28.6600 H   0  0  0  0  0  0  0  0  0  0  0  0
   55.2799   76.4233   30.5832 H   0  0  0  0  0  0  0  0  0  0  0  0
   57.1454   77.9582   31.1673 H   0  0  0  0  0  0  0  0  0  0  0  0
   58.6697   80.5067   27.7104 H   0  0  0  0  0  0  0  0  0  0  0  0
   60.5537   82.0001   28.3673 H   0  0  0  0  0  0  0  0  0  0  0  0
   62.3879   84.9327   32.4554 H   0  0  0  0  0  0  0  0  0  0  0  0
   63.1466   84.3799   30.9239 H   0  0  0  0  0  0  0  0  0  0  0  0
   62.0652   85.8143   30.9239 H   0  0  0  0  0  0  0  0  0  0  0  0
   59.6410   84.6118   32.4732 H   0  0  0  0  0  0  0  0  0  0  0  0
   59.7403   85.5502   30.9447 H   0  0  0  0  0  0  0  0  0  0  0  0
   59.0126   83.9079   30.9447 H   0  0  0  0  0  0  0  0  0  0  0  0
   59.7015   81.2334   32.5408 H   0  0  0  0  0  0  0  0  0  0  0  0
   57.8187   79.7418   31.8820 H   0  0  0  0  0  0  0  0  0  0  0  0
   54.9240   81.0717   26.5635 H   0  0  0  0  0  0  0  0  0  0  0  0
   56.4050   81.4321   25.6129 H   0  0  0  0  0  0  0  0  0  0  0  0
   55.7197   79.7717   25.6129 H   0  0  0  0  0  0  0  0  0  0  0  0
   54.6989   78.5536   26.8750 H   0  0  0  0  0  0  0  0  0  0  0  0
  1  2  1  0
  2  3  1  0
  3  4  2  0
  3  5  1  0
  5  6  1  0
  6  7  1  0
  7  8  2  0
  8  9  1  0
  9 10  1  0
 10 11  1  0
 11 12  2  0
 12 13  1  0
 13 14  1  0
 14 15  2  0
 14 16  1  0
 16 17  1  0
 16 18  1  0
 13 19  2  0
 19 20  1  0
  9 21  2  0
 21 22  1  0
 22 23  1  0
 21 24  1  0
 24  6  2  0
 20 10  2  0
  1 25  1  0
  1 26  1  0
  1 27  1  0
  5 28  1  0
  7 29  1  0
  8 30  1  0
 11 31  1  0
 12 32  1  0
 17 33  1  0
 17 34  1  0
 17 35  1  0
 18 36  1  0
 18 37  1  0
 18 38  1  0
 19 39  1  0
 20 40  1  0
 23 41  1  0
 23 42  1  0
 23 43  1  0
 24 44  1  0
M  END
>  <meeko>  (1) 
{"is_sidechain": false}

>  <smiles>  (1) 
COC(=O)Nc1ccc(-c2ccc(C(=O)N(C)C)cc2)c(OC)c1

>  <vina_score>  (1) 
-7.428

>  <job_id>  (1) 
aad0c7ffc01451ce

$$$$
