
     RDKit          3D

 40 41  0  0  0  0  0  0  0  0999 V2000
   51.0650   76.4820   28.0480 C   0  0  0  0  0  0  0  0  0  0  0  0
   52.3940   75.7840   27.7470 C   0  0  0  0  0  0  0  0  0  0  0  0
   52.5460   75.5240   26.2470 C   0  0  0  0  0  0  0  0  0  0  0  0
   53.5720   76.5680   28.3000 C   0  0  0  0  0  0  0  0  0  0  0  0
   54.5280   75.9730   29.1340 C   0  0  0  0  0  0  0  0  0  0  0  0
   55.6060   76.7110   29.6360 C   0  0  0  0  0  0  0  0  0  0  0  0
   55.7520   78.0600   29.3180 C   0  0  0  0  0  0  0  0  0  0  0  0
   56.8110   78.8710   29.7770 N   0  0  0  0  0  0  0  0  0  0  0  0
   57.8060   79.4580   29.0190 C   0  0  0  0  0  0  0  0  0  0  0  0
   57.9940   79.3340   27.8150 O   0  0  0  0  0  0  0  0  0  0  0  0
   58.7590   80.3040   29.7880 C   0  0  0  0  0  0  0  0  0  0  0  0
   59.6550   81.1710   29.1440 C   0  0  0  0  0  0  0  0  0  0  0  0
   60.5440   81.9410   29.8990 C   0  0  0  0  0  0  0  0  0  0  0  0
   60.5410   81.8300   31.2930 C   0  0  0  0  0  0  0  0  0  0  0  0
   61.6610   82.8080   32.2630 S   0  0  0  0  0  0  0  0  0  0  0  0
   62.9700   81.7620   32.4270 N   0  0  0  0  0  0  0  0  0  0  0  0
   61.0740   83.0050   33.5670 O   0  0  0  0  0  0  0  0  0  0  0  0
   62.1360   83.9010   31.4480 O   0  0  0  0  0  0  0  0  0  0  0  0
   59.6530   80.9680   31.9430 C   0  0  0  0  0  0  0  0  0  0  0  0
   58.7680   80.1970   31.1870 C   0  0  0  0  0  0  0  0  0  0  0  0
   54.8010   78.6580   28.4830 C   0  0  0  0  0  0  0  0  0  0  0  0
   53.7230   77.9220   27.9810 C   0  0  0  0  0  0  0  0  0  0  0  0
   50.9272   76.5544   29.1369 H   0  0  0  0  0  0  0  0  0  0  0  0
   51.0741   77.4917   27.6117 H   0  0  0  0  0  0  0  0  0  0  0  0
   50.2388   75.9014   27.6117 H   0  0  0  0  0  0  0  0  0  0  0  0
   52.3859   74.8095   28.2571 H   0  0  0  0  0  0  0  0  0  0  0  0
   53.0956   74.5839   26.0917 H   0  0  0  0  0  0  0  0  0  0  0  0
   51.5505   75.4473   25.7854 H   0  0  0  0  0  0  0  0  0  0  0  0
   53.1012   76.3539   25.7854 H   0  0  0  0  0  0  0  0  0  0  0  0
   54.4297   74.9097   29.3982 H   0  0  0  0  0  0  0  0  0  0  0  0
   56.3449   76.2217   30.2876 H   0  0  0  0  0  0  0  0  0  0  0  0
   56.8770   78.9700   30.7810 H   0  0  0  0  0  0  0  0  0  0  0  0
   59.6576   81.2445   28.0465 H   0  0  0  0  0  0  0  0  0  0  0  0
   61.2415   82.6298   29.4000 H   0  0  0  0  0  0  0  0  0  0  0  0
   62.7300   80.7800   32.3020 H   0  0  0  0  0  0  0  0  0  0  0  0
   63.7150   82.0590   31.7930 H   0  0  0  0  0  0  0  0  0  0  0  0
   59.6515   80.8978   33.0408 H   0  0  0  0  0  0  0  0  0  0  0  0
   58.0765   79.5044   31.6891 H   0  0  0  0  0  0  0  0  0  0  0  0
   54.9029   79.7208   28.2182 H   0  0  0  0  0  0  0  0  0  0  0  0
   52.9859   78.4128   27.3284 H   0  0  0  0  0  0  0  0  0  0  0  0
  1  2  1  0
  2  3  1  0
  2  4  1  0
  4  5  1  0
  5  6  2  0
  6  7  1  0
  7  8  1  0
  8  9  1  0
  9 10  2  0
  9 11  1  0
 11 12  1  0
 12 13  2  0
 13 14  1  0
 14 15  1  0
 15 16  1  0
 15 17  2  0
 15 18  2  0
 14 19  2  0
 19 20  1  0
  7 21  2  0
 21 22  1  0
 22  4  2  0
 20 11  2  0
  1 23  1  0
  1 24  1  0
  1 25  1  0
  2 26  1  0
  3 27  1  0
  3 28  1  0
  3 29  1  0
  5 30  1  0
  6 31  1  0
  8 32  1  0
 12 33  1  0
 13 34  1  0
 16 35  1  0
 16 36  1  0
 19 37  1  0
 20 38  1  0
 21 39  1  0
 22 40  1  0
M  END
>  <meeko>  (1) 
{"is_sidechain": false}

>  <smiles>  (1) 
CC(C)c1ccc(NC(=O)c2ccc(S(N)(=O)=O)cc2)cc1

>  <vina_score>  (1) 
-7.781

>  <job_id>  (1) 
aad97745a8dc2339

$$$$
