
     RDKit          3D

 37 38  0  0  0  0  0  0  0  0999 V2000
   52.1850   75.7070   27.1740 C   0  0  0  0  0  0  0  0  0  0  0  0
   52.2500   76.8770   27.9800 O   0  0  0  0  0  0  0  0  0  0  0  0
   53.4470   77.5360   28.0200 C   0  0  0  0  0  0  0  0  0  0  0  0
   54.4760   77.3170   28.9350 C   0  0  0  0  0  0  0  0  0  0  0  0
   55.6600   78.0650   28.8650 C   0  0  0  0  0  0  0  0  0  0  0  0
   55.8230   79.0370   27.8780 C   0  0  0  0  0  0  0  0  0  0  0  0
   56.9220   79.8310   27.7010 O   0  0  0  0  0  0  0  0  0  0  0  0
   58.1830   79.2780   28.0720 C   0  0  0  0  0  0  0  0  0  0  0  0
   58.8830   80.1380   29.1300 C   0  0  0  0  0  0  0  0  0  0  0  0
   59.7080   80.9840   28.7940 O   0  0  0  0  0  0  0  0  0  0  0  0
   58.4760   79.8430   30.4180 N   0  0  0  0  0  0  0  0  0  0  0  0
   58.9020   80.4290   31.6240 C   0  0  0  0  0  0  0  0  0  0  0  0
   58.1850   81.5430   32.0770 C   0  0  0  0  0  0  0  0  0  0  0  0
   58.5380   82.1790   33.2700 C   0  0  0  0  0  0  0  0  0  0  0  0
   59.6150   81.7090   34.0180 C   0  0  0  0  0  0  0  0  0  0  0  0
   60.3520   80.6070   33.5730 C   0  0  0  0  0  0  0  0  0  0  0  0
   61.4920   80.0740   34.3910 C   0  0  0  0  0  0  0  0  0  0  0  0
   59.9800   79.9650   32.3810 C   0  0  0  0  0  0  0  0  0  0  0  0
   54.7920   79.2540   26.9630 C   0  0  0  0  0  0  0  0  0  0  0  0
   53.6130   78.5080   27.0340 C   0  0  0  0  0  0  0  0  0  0  0  0
   52.1356   74.8185   27.8207 H   0  0  0  0  0  0  0  0  0  0  0  0
   51.2878   75.7486   26.5390 H   0  0  0  0  0  0  0  0  0  0  0  0
   53.0813   75.6490   26.5390 H   0  0  0  0  0  0  0  0  0  0  0  0
   54.3582   76.5524   29.7170 H   0  0  0  0  0  0  0  0  0  0  0  0
   56.4649   77.8842   29.5926 H   0  0  0  0  0  0  0  0  0  0  0  0
   58.0249   78.2685   28.4792 H   0  0  0  0  0  0  0  0  0  0  0  0
   58.8218   79.2432   27.1771 H   0  0  0  0  0  0  0  0  0  0  0  0
   57.7790   79.1080   30.4820 H   0  0  0  0  0  0  0  0  0  0  0  0
   57.3361   81.9210   31.4884 H   0  0  0  0  0  0  0  0  0  0  0  0
   57.9653   83.0510   33.6186 H   0  0  0  0  0  0  0  0  0  0  0  0
   59.8864   82.2059   34.9611 H   0  0  0  0  0  0  0  0  0  0  0  0
   61.2585   80.1832   35.4604 H   0  0  0  0  0  0  0  0  0  0  0  0
   61.6461   79.0105   34.1561 H   0  0  0  0  0  0  0  0  0  0  0  0
   62.4069   80.6377   34.1561 H   0  0  0  0  0  0  0  0  0  0  0  0
   60.5449   79.0853   32.0390 H   0  0  0  0  0  0  0  0  0  0  0  0
   54.9085   80.0180   26.1802 H   0  0  0  0  0  0  0  0  0  0  0  0
   52.8086   78.6889   26.3058 H   0  0  0  0  0  0  0  0  0  0  0  0
  1  2  1  0
  2  3  1  0
  3  4  1  0
  4  5  2  0
  5  6  1  0
  6  7  1  0
  7  8  1  0
  8  9  1  0
  9 10  2  0
  9 11  1  0
 11 12  1  0
 12 13  1  0
 13 14  2  0
 14 15  1  0
 15 16  2  0
 16 17  1  0
 16 18  1  0
  6 19  2  0
 19 20  1  0
 20  3  2  0
 18 12  2  0
  1 21  1  0
  1 22  1  0
  1 23  1  0
  4 24  1  0
  5 25  1  0
  8 26  1  0
  8 27  1  0
 11 28  1  0
 13 29  1  0
 14 30  1  0
 15 31  1  0
 17 32  1  0
 17 33  1  0
 17 34  1  0
 18 35  1  0
 19 36  1  0
 20 37  1  0
M  END
>  <meeko>  (1) 
{"is_sidechain": false}

>  <smiles>  (1) 
COc1ccc(OCC(=O)Nc2cccc(C)c2)cc1

>  <vina_score>  (1) 
-7.282

>  <job_id>  (1) 
ab045275cc86c485

$$$$
