
     RDKit          3D

 51 53  0  0  0  0  0  0  0  0999 V2000
   58.5760   80.3480   31.0840 C   0  0  0  0  0  0  0  0  0  0  0  0
   59.2990   80.6210   29.7750 C   0  0  0  0  0  0  0  0  0  0  0  0
   58.5260   80.1470   28.5410 C   0  0  0  0  0  0  0  0  0  0  0  0
   57.4530   79.1020   28.8650 C   0  0  0  0  0  0  0  0  0  0  0  0
   56.2410   79.2630   27.9850 C   0  0  0  0  0  0  0  0  0  0  0  0
   56.3700   80.3430   27.1730 N   0  0  0  0  0  0  0  0  0  0  0  0
   55.3770   80.6980   26.3300 N   0  0  0  0  0  0  0  0  0  0  0  0
   54.2320   79.9900   26.2880 C   0  0  0  0  0  0  0  0  0  0  0  0
   53.1810   80.4300   25.4270 N   0  0  0  0  0  0  0  0  0  0  0  0
   52.7810   81.7940   25.8200 C   0  0  0  0  0  0  0  0  0  0  0  0
   53.0990   82.8590   24.7690 C   0  0  0  0  0  0  0  0  0  0  0  0
   52.0770   82.9730   23.6160 C   0  0  0  0  0  0  0  0  0  0  0  0
   52.4790   82.2470   22.4150 N   0  0  0  0  0  0  0  0  0  0  0  0
   51.8290   80.9500   22.2360 C   0  0  0  0  0  0  0  0  0  0  0  0
   52.3050   79.8040   23.1300 C   0  0  0  0  0  0  0  0  0  0  0  0
   53.5020   80.1760   24.0080 C   0  0  0  0  0  0  0  0  0  0  0  0
   54.0490   78.8470   27.1020 C   0  0  0  0  0  0  0  0  0  0  0  0
   52.8540   78.0950   27.0100 C   0  0  0  0  0  0  0  0  0  0  0  0
   52.6240   76.9700   27.7850 C   0  0  0  0  0  0  0  0  0  0  0  0
   53.5950   76.5590   28.6770 C   0  0  0  0  0  0  0  0  0  0  0  0
   54.8110   77.2620   28.8050 C   0  0  0  0  0  0  0  0  0  0  0  0
   55.7850   76.6660   29.7890 C   0  0  0  0  0  0  0  0  0  0  0  0
   55.0750   78.4400   28.0030 C   0  0  0  0  0  0  0  0  0  0  0  0
   59.2371   80.5976   31.9270 H   0  0  0  0  0  0  0  0  0  0  0  0
   57.6666   80.9646   31.1361 H   0  0  0  0  0  0  0  0  0  0  0  0
   58.3011   79.2842   31.1361 H   0  0  0  0  0  0  0  0  0  0  0  0
   59.4639   81.7051   29.6876 H   0  0  0  0  0  0  0  0  0  0  0  0
   60.2429   80.0569   29.8025 H   0  0  0  0  0  0  0  0  0  0  0  0
   58.0378   81.0176   28.0787 H   0  0  0  0  0  0  0  0  0  0  0  0
   59.2510   79.6717   27.8639 H   0  0  0  0  0  0  0  0  0  0  0  0
   57.8747   78.0976   28.7121 H   0  0  0  0  0  0  0  0  0  0  0  0
   57.1409   79.2410   29.9106 H   0  0  0  0  0  0  0  0  0  0  0  0
   51.6959   81.7985   26.0006 H   0  0  0  0  0  0  0  0  0  0  0  0
   53.3594   82.0501   26.7199 H   0  0  0  0  0  0  0  0  0  0  0  0
   53.1490   83.8335   25.2767 H   0  0  0  0  0  0  0  0  0  0  0  0
   54.0490   82.5552   24.3051 H   0  0  0  0  0  0  0  0  0  0  0  0
   51.1138   82.5697   23.9619 H   0  0  0  0  0  0  0  0  0  0  0  0
   52.0075   84.0370   23.3459 H   0  0  0  0  0  0  0  0  0  0  0  0
   53.4880   82.0910   22.4430 H   0  0  0  0  0  0  0  0  0  0  0  0
   50.7536   81.0898   22.4205 H   0  0  0  0  0  0  0  0  0  0  0  0
   52.0883   80.6400   21.2129 H   0  0  0  0  0  0  0  0  0  0  0  0
   51.4731   79.5029   23.7837 H   0  0  0  0  0  0  0  0  0  0  0  0
   52.6290   78.9879   22.4674 H   0  0  0  0  0  0  0  0  0  0  0  0
   54.2266   79.3495   23.9648 H   0  0  0  0  0  0  0  0  0  0  0  0
   53.8942   81.1225   23.6076 H   0  0  0  0  0  0  0  0  0  0  0  0
   52.0796   78.4152   26.2974 H   0  0  0  0  0  0  0  0  0  0  0  0
   51.6809   76.4117   27.6912 H   0  0  0  0  0  0  0  0  0  0  0  0
   53.4170   75.6686   29.2979 H   0  0  0  0  0  0  0  0  0  0  0  0
   55.4444   76.8744   30.8140 H   0  0  0  0  0  0  0  0  0  0  0  0
   55.8419   75.5782   29.6355 H   0  0  0  0  0  0  0  0  0  0  0  0
   56.7794   77.1104   29.6355 H   0  0  0  0  0  0  0  0  0  0  0  0
  1  2  1  0
  2  3  1  0
  3  4  1  0
  4  5  1  0
  5  6  1  0
  6  7  2  0
  7  8  1  0
  8  9  1  0
  9 10  1  0
 10 11  1  0
 11 12  1  0
 12 13  1  0
 13 14  1  0
 14 15  1  0
 15 16  1  0
  8 17  2  0
 17 18  1  0
 18 19  2  0
 19 20  1  0
 20 21  2  0
 21 22  1  0
 21 23  1  0
 23  5  2  0
 16  9  1  0
 23 17  1  0
  1 24  1  0
  1 25  1  0
  1 26  1  0
  2 27  1  0
  2 28  1  0
  3 29  1  0
  3 30  1  0
  4 31  1  0
  4 32  1  0
 10 33  1  0
 10 34  1  0
 11 35  1  0
 11 36  1  0
 12 37  1  0
 12 38  1  0
 13 39  1  0
 14 40  1  0
 14 41  1  0
 15 42  1  0
 15 43  1  0
 16 44  1  0
 16 45  1  0
 18 46  1  0
 19 47  1  0
 20 48  1  0
 22 49  1  0
 22 50  1  0
 22 51  1  0
M  END
>  <meeko>  (1) 
{"is_sidechain": false}

>  <smiles>  (1) 
CCCCc1nnc(N2CCCNCCC2)c2cccc(C)c12

>  <vina_score>  (1) 
-6.076

>  <job_id>  (1) 
aba0becbb2880011

$$$$
