
     RDKit          3D

 42 44  0  0  0  0  0  0  0  0999 V2000
   63.3880   83.2250   32.2670 C   0  0  0  0  0  0  0  0  0  0  0  0
   61.9340   83.1410   32.3660 N   0  0  0  0  0  0  0  0  0  0  0  0
   61.2720   83.5180   31.1000 C   0  0  0  0  0  0  0  0  0  0  0  0
   60.8100   82.3430   30.2050 C   0  0  0  0  0  0  0  0  0  0  0  0
   59.9270   81.4230   30.9430 N   0  0  0  0  0  0  0  0  0  0  0  0
   58.9710   80.6610   30.2980 C   0  0  0  0  0  0  0  0  0  0  0  0
   58.8630   80.6080   28.9060 C   0  0  0  0  0  0  0  0  0  0  0  0
   57.8850   79.8300   28.2750 C   0  0  0  0  0  0  0  0  0  0  0  0
   57.0070   79.0990   29.0520 C   0  0  0  0  0  0  0  0  0  0  0  0
   55.9950   78.2810   28.5490 N   0  0  0  0  0  0  0  0  0  0  0  0
   54.7740   78.6550   28.0420 C   0  0  0  0  0  0  0  0  0  0  0  0
   54.3250   79.7940   27.9890 O   0  0  0  0  0  0  0  0  0  0  0  0
   53.9250   77.5310   27.5510 C   0  0  0  0  0  0  0  0  0  0  0  0
   53.3100   77.5590   26.2920 C   0  0  0  0  0  0  0  0  0  0  0  0
   52.5220   76.4840   25.8750 C   0  0  0  0  0  0  0  0  0  0  0  0
   52.3390   75.3840   26.7140 C   0  0  0  0  0  0  0  0  0  0  0  0
   52.9340   75.3590   27.9740 C   0  0  0  0  0  0  0  0  0  0  0  0
   53.7220   76.4310   28.3950 C   0  0  0  0  0  0  0  0  0  0  0  0
   57.0640   79.1070   30.3970 N   0  0  0  0  0  0  0  0  0  0  0  0
   58.0280   79.8780   30.9700 C   0  0  0  0  0  0  0  0  0  0  0  0
   60.0780   81.4080   32.4090 C   0  0  0  0  0  0  0  0  0  0  0  0
   61.5200   81.7940   32.8120 C   0  0  0  0  0  0  0  0  0  0  0  0
   63.8234   83.2502   33.2768 H   0  0  0  0  0  0  0  0  0  0  0  0
   63.7699   82.3474   31.7248 H   0  0  0  0  0  0  0  0  0  0  0  0
   63.6663   84.1407   31.7248 H   0  0  0  0  0  0  0  0  0  0  0  0
   60.3863   84.1210   31.3489 H   0  0  0  0  0  0  0  0  0  0  0  0
   62.0314   84.0579   30.5153 H   0  0  0  0  0  0  0  0  0  0  0  0
   60.2645   82.7454   29.3387 H   0  0  0  0  0  0  0  0  0  0  0  0
   61.6996   81.7840   29.8793 H   0  0  0  0  0  0  0  0  0  0  0  0
   59.5635   81.1918   28.2909 H   0  0  0  0  0  0  0  0  0  0  0  0
   57.8166   79.8011   27.1775 H   0  0  0  0  0  0  0  0  0  0  0  0
   56.2220   77.3040   28.6570 H   0  0  0  0  0  0  0  0  0  0  0  0
   53.4480   78.4281   25.6320 H   0  0  0  0  0  0  0  0  0  0  0  0
   52.0450   76.5044   24.8840 H   0  0  0  0  0  0  0  0  0  0  0  0
   51.7241   74.5352   26.3803 H   0  0  0  0  0  0  0  0  0  0  0  0
   52.7825   74.4942   28.6367 H   0  0  0  0  0  0  0  0  0  0  0  0
   54.1852   76.4124   29.3925 H   0  0  0  0  0  0  0  0  0  0  0  0
   58.0691   79.8858   32.0692 H   0  0  0  0  0  0  0  0  0  0  0  0
   59.3739   82.1276   32.8522 H   0  0  0  0  0  0  0  0  0  0  0  0
   59.8669   80.3930   32.7767 H   0  0  0  0  0  0  0  0  0  0  0  0
   61.5934   81.7561   33.9089 H   0  0  0  0  0  0  0  0  0  0  0  0
   62.1897   81.0768   32.3149 H   0  0  0  0  0  0  0  0  0  0  0  0
  1  2  1  0
  2  3  1  0
  3  4  1  0
  4  5  1  0
  5  6  1  0
  6  7  2  0
  7  8  1  0
  8  9  2  0
  9 10  1  0
 10 11  1  0
 11 12  2  0
 11 13  1  0
 13 14  2  0
 14 15  1  0
 15 16  2  0
 16 17  1  0
 17 18  2  0
  9 19  1  0
 19 20  2  0
  5 21  1  0
 21 22  1  0
 22  2  1  0
 20  6  1  0
 18 13  1  0
  1 23  1  0
  1 24  1  0
  1 25  1  0
  3 26  1  0
  3 27  1  0
  4 28  1  0
  4 29  1  0
  7 30  1  0
  8 31  1  0
 10 32  1  0
 14 33  1  0
 15 34  1  0
 16 35  1  0
 17 36  1  0
 18 37  1  0
 20 38  1  0
 21 39  1  0
 21 40  1  0
 22 41  1  0
 22 42  1  0
M  END
>  <meeko>  (1) 
{"is_sidechain": false}

>  <smiles>  (1) 
CN1CCN(c2ccc(NC(=O)c3ccccc3)nc2)CC1

>  <vina_score>  (1) 
-7.240

>  <job_id>  (1) 
abc3ebaa9cff7943

$$$$
