
     RDKit          3D

 47 49  0  0  0  0  0  0  0  0999 V2000
   53.0770   81.6590   23.9060 C   0  0  0  0  0  0  0  0  0  0  0  0
   53.3110   80.4340   24.7120 C   0  0  0  0  0  0  0  0  0  0  0  0
   52.9310   79.2330   24.3250 N   0  0  0  0  0  0  0  0  0  0  0  0
   53.3550   78.3770   25.2960 C   0  0  0  0  0  0  0  0  0  0  0  0
   54.0020   79.0420   26.3190 C   0  0  0  0  0  0  0  0  0  0  0  0
   54.6250   78.4920   27.5160 C   0  0  0  0  0  0  0  0  0  0  0  0
   53.9460   77.6210   28.3560 C   0  0  0  0  0  0  0  0  0  0  0  0
   54.6150   77.1240   29.4660 C   0  0  0  0  0  0  0  0  0  0  0  0
   55.9370   77.5020   29.6880 C   0  0  0  0  0  0  0  0  0  0  0  0
   56.5630   78.3600   28.7910 C   0  0  0  0  0  0  0  0  0  0  0  0
   57.8920   78.8100   28.9480 N   0  0  0  0  0  0  0  0  0  0  0  0
   58.2640   80.0180   29.5840 N   0  0  0  0  0  0  0  0  0  0  0  0
   59.3100   80.7740   28.8930 C   0  0  0  0  0  0  0  0  0  0  0  0
   59.4600   82.1610   29.5200 C   0  0  0  0  0  0  0  0  0  0  0  0
   59.6980   82.0690   31.0250 C   0  0  0  0  0  0  0  0  0  0  0  0
   58.6130   81.2260   31.6910 C   0  0  0  0  0  0  0  0  0  0  0  0
   58.4770   79.8570   31.0200 C   0  0  0  0  0  0  0  0  0  0  0  0
   55.9100   78.8630   27.7200 N   0  0  0  0  0  0  0  0  0  0  0  0
   53.9320   80.3820   25.9490 N   0  0  0  0  0  0  0  0  0  0  0  0
   54.4070   81.5060   26.7580 C   0  0  0  0  0  0  0  0  0  0  0  0
   53.3100   82.4820   27.1910 C   0  0  0  0  0  0  0  0  0  0  0  0
   55.5790   82.2320   26.0970 C   0  0  0  0  0  0  0  0  0  0  0  0
   52.9136   82.5144   24.5780 H   0  0  0  0  0  0  0  0  0  0  0  0
   53.9542   81.8535   23.2715 H   0  0  0  0  0  0  0  0  0  0  0  0
   52.1898   81.5165   23.2715 H   0  0  0  0  0  0  0  0  0  0  0  0
   53.2008   77.2882   25.2687 H   0  0  0  0  0  0  0  0  0  0  0  0
   52.9052   77.3321   28.1478 H   0  0  0  0  0  0  0  0  0  0  0  0
   54.1073   76.4399   30.1619 H   0  0  0  0  0  0  0  0  0  0  0  0
   56.4815   77.1246   30.5661 H   0  0  0  0  0  0  0  0  0  0  0  0
   58.3860   77.9950   29.3230 H   0  0  0  0  0  0  0  0  0  0  0  0
   60.2641   80.2328   28.9752 H   0  0  0  0  0  0  0  0  0  0  0  0
   59.0323   80.8864   27.8346 H   0  0  0  0  0  0  0  0  0  0  0  0
   60.3137   82.6743   29.0534 H   0  0  0  0  0  0  0  0  0  0  0  0
   58.5281   82.7203   29.3504 H   0  0  0  0  0  0  0  0  0  0  0  0
   60.6788   81.6058   31.2081 H   0  0  0  0  0  0  0  0  0  0  0  0
   59.6701   83.0829   31.4507 H   0  0  0  0  0  0  0  0  0  0  0  0
   58.8724   81.0810   32.7501 H   0  0  0  0  0  0  0  0  0  0  0  0
   57.6542   81.7561   31.5923 H   0  0  0  0  0  0  0  0  0  0  0  0
   59.3964   79.2770   31.1882 H   0  0  0  0  0  0  0  0  0  0  0  0
   57.6151   79.3288   31.4537 H   0  0  0  0  0  0  0  0  0  0  0  0
   54.7713   81.0486   27.6897 H   0  0  0  0  0  0  0  0  0  0  0  0
   53.2664   82.5208   28.2895 H   0  0  0  0  0  0  0  0  0  0  0  0
   53.5347   83.4843   26.7973 H   0  0  0  0  0  0  0  0  0  0  0  0
   52.3407   82.1423   26.7973 H   0  0  0  0  0  0  0  0  0  0  0  0
   56.2412   82.6422   26.8736 H   0  0  0  0  0  0  0  0  0  0  0  0
   56.1425   81.5245   25.4709 H   0  0  0  0  0  0  0  0  0  0  0  0
   55.1965   83.0516   25.4709 H   0  0  0  0  0  0  0  0  0  0  0  0
  1  2  1  0
  2  3  2  0
  3  4  1  0
  4  5  2  0
  5  6  1  0
  6  7  1  0
  7  8  2  0
  8  9  1  0
  9 10  2  0
 10 11  1  0
 11 12  1  0
 12 13  1  0
 13 14  1  0
 14 15  1  0
 15 16  1  0
 16 17  1  0
 10 18  1  0
  5 19  1  0
 19 20  1  0
 20 21  1  0
 20 22  1  0
 19  2  1  0
 18  6  2  0
 17 12  1  0
  1 23  1  0
  1 24  1  0
  1 25  1  0
  4 26  1  0
  7 27  1  0
  8 28  1  0
  9 29  1  0
 11 30  1  0
 13 31  1  0
 13 32  1  0
 14 33  1  0
 14 34  1  0
 15 35  1  0
 15 36  1  0
 16 37  1  0
 16 38  1  0
 17 39  1  0
 17 40  1  0
 20 41  1  0
 21 42  1  0
 21 43  1  0
 21 44  1  0
 22 45  1  0
 22 46  1  0
 22 47  1  0
M  END
>  <meeko>  (1) 
{"is_sidechain": false}

>  <smiles>  (1) 
Cc1ncc(-c2cccc(NN3CCCCC3)n2)n1C(C)C

>  <vina_score>  (1) 
-8.342

>  <job_id>  (1) 
abf4ada7bb1102d0

$$$$
