
     RDKit          3D

 66 69  0  0  0  0  0  0  0  0999 V2000
   55.2320   85.4590   26.5230 C   0  0  0  0  0  0  0  0  0  0  0  0
   55.4430   83.9510   26.5400 C   0  0  1  0  0  0  0  0  0  0  0  0
   56.3140   83.6130   27.6190 O   0  0  0  0  0  0  0  0  0  0  0  0
   54.1410   83.1350   26.6270 C   0  0  0  0  0  0  0  0  0  0  0  0
   53.6550   82.5900   25.3080 C   0  0  0  0  0  0  0  0  0  0  0  0
   52.9730   81.4520   25.1020 C   0  0  0  0  0  0  0  0  0  0  0  0
   52.4800   80.4800   26.1410 C   0  0  0  0  0  0  0  0  0  0  0  0
   53.0360   79.0700   25.9340 C   0  0  0  0  0  0  0  0  0  0  0  0
   53.5370   78.4280   27.2180 C   0  0  0  0  0  0  0  0  0  0  0  0
   52.8430   77.6680   27.8920 O   0  0  0  0  0  0  0  0  0  0  0  0
   54.9180   78.7520   27.6900 C   0  0  0  0  0  0  0  0  0  0  0  0
   55.6270   79.7650   27.0320 C   0  0  0  0  0  0  0  0  0  0  0  0
   56.9220   80.1030   27.4320 C   0  0  0  0  0  0  0  0  0  0  0  0
   57.5320   79.4260   28.4940 C   0  0  0  0  0  0  0  0  0  0  0  0
   58.9410   79.7700   28.9200 C   0  0  0  0  0  0  0  0  0  0  0  0
   59.0770   81.1740   29.4860 C   0  0  0  0  0  0  0  0  0  0  0  0
   59.4660   82.1170   28.7970 O   0  0  0  0  0  0  0  0  0  0  0  0
   58.7600   81.2700   30.8320 N   0  0  0  0  0  0  0  0  0  0  0  0
   58.8530   82.4620   31.5240 C   0  0  0  0  0  0  0  0  0  0  0  0
   58.1610   83.6030   31.1980 N   0  0  0  0  0  0  0  0  0  0  0  0
   58.4070   84.6590   32.0000 N   0  0  0  0  0  0  0  0  0  0  0  0
   59.3050   84.2070   32.8890 C   0  0  0  0  0  0  0  0  0  0  0  0
   59.9380   84.8780   33.9480 C   0  0  0  0  0  0  0  0  0  0  0  0
   60.8370   84.0700   34.6820 C   0  0  0  0  0  0  0  0  0  0  0  0
   61.0690   82.6840   34.4050 C   0  0  0  0  0  0  0  0  0  0  0  0
   62.0320   81.9420   35.1630 N   0  0  0  0  0  0  0  0  0  0  0  0
   63.0640   81.1290   34.4740 C   0  0  0  0  0  0  0  0  0  0  0  0
   63.0600   79.7400   35.1160 C   0  0  0  0  0  0  0  0  0  0  0  0
   62.7400   79.9470   36.5870 C   0  0  0  0  0  0  0  0  0  0  0  0
   61.4230   81.1440   36.5580 S   0  0  0  0  0  0  0  0  0  0  0  0
   60.1980   80.4520   36.2200 O   0  0  0  0  0  0  0  0  0  0  0  0
   61.5300   82.0370   37.6890 O   0  0  0  0  0  0  0  0  0  0  0  0
   60.4680   81.9970   33.3280 C   0  0  0  0  0  0  0  0  0  0  0  0
   59.5940   82.8170   32.6200 C   0  0  0  0  0  0  0  0  0  0  0  0
   56.8220   78.4140   29.1540 C   0  0  0  0  0  0  0  0  0  0  0  0
   55.5250   78.0760   28.7540 C   0  0  0  0  0  0  0  0  0  0  0  0
   55.1796   85.8336   27.5559 H   0  0  0  0  0  0  0  0  0  0  0  0
   56.0715   85.9408   26.0004 H   0  0  0  0  0  0  0  0  0  0  0  0
   54.2925   85.6919   26.0004 H   0  0  0  0  0  0  0  0  0  0  0  0
   55.8944   83.6818   25.5737 H   0  0  0  0  0  0  0  0  0  0  0  0
   56.6170   82.7000   27.4670 H   0  0  0  0  0  0  0  0  0  0  0  0
   54.3116   82.2874   27.3070 H   0  0  0  0  0  0  0  0  0  0  0  0
   53.3630   83.8248   26.9860 H   0  0  0  0  0  0  0  0  0  0  0  0
   53.8845   83.1911   24.4158 H   0  0  0  0  0  0  0  0  0  0  0  0
   52.7488   81.2011   24.0547 H   0  0  0  0  0  0  0  0  0  0  0  0
   52.7883   80.8386   27.1341 H   0  0  0  0  0  0  0  0  0  0  0  0
   51.3849   80.4239   26.0536 H   0  0  0  0  0  0  0  0  0  0  0  0
   52.2389   78.4381   25.5153 H   0  0  0  0  0  0  0  0  0  0  0  0
   53.8966   79.1551   25.2542 H   0  0  0  0  0  0  0  0  0  0  0  0
   55.1595   80.2996   26.1920 H   0  0  0  0  0  0  0  0  0  0  0  0
   57.4647   80.9048   26.9099 H   0  0  0  0  0  0  0  0  0  0  0  0
   59.2570   79.0516   29.6908 H   0  0  0  0  0  0  0  0  0  0  0  0
   59.5723   79.7210   28.0205 H   0  0  0  0  0  0  0  0  0  0  0  0
   58.4180   80.4540   31.3270 H   0  0  0  0  0  0  0  0  0  0  0  0
   57.5050   83.7040   30.4270 H   0  0  0  0  0  0  0  0  0  0  0  0
   59.7515   85.9359   34.1850 H   0  0  0  0  0  0  0  0  0  0  0  0
   61.3897   84.5323   35.5131 H   0  0  0  0  0  0  0  0  0  0  0  0
   62.8254   81.0484   33.4032 H   0  0  0  0  0  0  0  0  0  0  0  0
   64.0545   81.5976   34.5708 H   0  0  0  0  0  0  0  0  0  0  0  0
   62.2939   79.1060   34.6458 H   0  0  0  0  0  0  0  0  0  0  0  0
   64.0303   79.2384   34.9862 H   0  0  0  0  0  0  0  0  0  0  0  0
   62.4081   79.0078   37.0536 H   0  0  0  0  0  0  0  0  0  0  0  0
   63.6095   80.2793   37.1731 H   0  0  0  0  0  0  0  0  0  0  0  0
   60.6659   80.9440   33.0791 H   0  0  0  0  0  0  0  0  0  0  0  0
   57.2892   77.8803   29.9948 H   0  0  0  0  0  0  0  0  0  0  0  0
   54.9806   77.2763   29.2775 H   0  0  0  0  0  0  0  0  0  0  0  0
  1  2  1  0
  2  3  1  0
  2  4  1  0
  4  5  1  0
  5  6  2  3
  6  7  1  0
  7  8  1  0
  8  9  1  0
  9 10  2  0
  9 11  1  0
 11 12  1  0
 12 13  2  0
 13 14  1  0
 14 15  1  0
 15 16  1  0
 16 17  2  0
 16 18  1  0
 18 19  1  0
 19 20  1  0
 20 21  1  0
 21 22  2  0
 22 23  1  0
 23 24  2  0
 24 25  1  0
 25 26  1  0
 26 27  1  0
 27 28  1  0
 28 29  1  0
 29 30  1  0
 30 31  2  0
 30 32  2  0
 25 33  2  0
 33 34  1  0
 14 35  2  0
 35 36  1  0
 36 11  2  0
 34 19  2  0
 34 22  1  0
 30 26  1  0
  1 37  1  0
  1 38  1  0
  1 39  1  0
  2 40  1  6
  3 41  1  0
  4 42  1  0
  4 43  1  0
  5 44  1  0
  6 45  1  0
  7 46  1  0
  7 47  1  0
  8 48  1  0
  8 49  1  0
 12 50  1  0
 13 51  1  0
 15 52  1  0
 15 53  1  0
 18 54  1  0
 20 55  1  0
 23 56  1  0
 24 57  1  0
 27 58  1  0
 27 59  1  0
 28 60  1  0
 28 61  1  0
 29 62  1  0
 29 63  1  0
 33 64  1  0
 35 65  1  0
 36 66  1  0
M  END
>  <meeko>  (1) 
{"is_sidechain": false}

>  <smiles>  (1) 
C[C@@H](O)CC=CCCC(=O)c1ccc(CC(=O)Nc2[nH]nc3ccc(N4CCCS4(=O)=O)cc23)cc1

>  <vina_score>  (1) 
-8.345

>  <job_id>  (1) 
ac5b57dc82ee00b8

$$$$
