
     RDKit          3D

 54 55  0  0  0  0  0  0  0  0999 V2000
   64.1240   81.7430   31.0200 C   0  0  0  0  0  0  0  0  0  0  0  0
   62.9700   82.0050   31.9880 C   0  0  0  0  0  0  0  0  0  0  0  0
   63.4420   81.7100   33.4170 C   0  0  0  0  0  0  0  0  0  0  0  0
   62.4410   83.4470   31.9180 C   0  0  0  0  0  0  0  0  0  0  0  0
   62.8240   83.9940   30.7220 F   0  0  0  0  0  0  0  0  0  0  0  0
   60.6690   83.6460   32.2010 S   0  0  0  0  0  0  0  0  0  0  0  0
   60.3860   83.3610   33.5980 O   0  0  0  0  0  0  0  0  0  0  0  0
   60.1980   84.8830   31.6030 O   0  0  0  0  0  0  0  0  0  0  0  0
   59.9360   82.3070   31.2810 C   0  0  0  0  0  0  0  0  0  0  0  0
   60.0530   82.2660   29.8930 C   0  0  0  0  0  0  0  0  0  0  0  0
   59.4720   81.2080   29.1830 C   0  0  0  0  0  0  0  0  0  0  0  0
   58.7540   80.1990   29.8340 C   0  0  0  0  0  0  0  0  0  0  0  0
   58.1720   79.1090   29.1800 N   0  0  0  0  0  0  0  0  0  0  0  0
   56.9370   78.8910   28.5750 C   0  0  0  0  0  0  0  0  0  0  0  0
   56.1430   77.8690   28.9230 N   0  0  0  0  0  0  0  0  0  0  0  0
   54.9620   77.7510   28.2880 C   0  0  0  0  0  0  0  0  0  0  0  0
   54.5320   78.6160   27.3140 C   0  0  0  0  0  0  0  0  0  0  0  0
   53.2260   78.4660   26.6330 C   0  0  0  0  0  0  0  0  0  0  0  0
   53.3330   78.4000   25.2770 F   0  0  0  0  0  0  0  0  0  0  0  0
   52.3610   79.4830   26.8990 F   0  0  0  0  0  0  0  0  0  0  0  0
   52.5670   77.3270   26.9970 F   0  0  0  0  0  0  0  0  0  0  0  0
   55.4070   79.6300   27.0280 C   0  0  0  0  0  0  0  0  0  0  0  0
   55.0240   80.5330   26.0590 O   0  0  0  0  0  0  0  0  0  0  0  0
   54.5620   81.8110   26.5190 C   0  0  2  0  0  0  0  0  0  0  0  0
   53.2520   82.1750   25.8160 C   0  0  0  0  0  0  0  0  0  0  0  0
   55.6860   82.8410   26.2500 C   0  0  1  0  0  0  0  0  0  0  0  0
   55.1990   84.2830   26.1510 C   0  0  0  0  0  0  0  0  0  0  0  0
   56.6860   82.7820   27.2690 O   0  0  0  0  0  0  0  0  0  0  0  0
   56.5990   79.7850   27.6360 N   0  0  0  0  0  0  0  0  0  0  0  0
   58.6370   80.2780   31.2350 C   0  0  0  0  0  0  0  0  0  0  0  0
   59.2140   81.3250   31.9590 C   0  0  0  0  0  0  0  0  0  0  0  0
   65.0411   81.5348   31.5906 H   0  0  0  0  0  0  0  0  0  0  0  0
   63.8817   80.8770   30.3865 H   0  0  0  0  0  0  0  0  0  0  0  0
   64.2794   82.6287   30.3865 H   0  0  0  0  0  0  0  0  0  0  0  0
   62.1414   81.3430   31.6961 H   0  0  0  0  0  0  0  0  0  0  0  0
   62.7354   82.1516   34.1351 H   0  0  0  0  0  0  0  0  0  0  0  0
   63.4886   80.6218   33.5705 H   0  0  0  0  0  0  0  0  0  0  0  0
   64.4406   82.1450   33.5705 H   0  0  0  0  0  0  0  0  0  0  0  0
   62.8920   83.9869   32.7636 H   0  0  0  0  0  0  0  0  0  0  0  0
   60.5976   83.0587   29.3591 H   0  0  0  0  0  0  0  0  0  0  0  0
   59.5826   81.1694   28.0893 H   0  0  0  0  0  0  0  0  0  0  0  0
   58.6980   78.2480   29.1690 H   0  0  0  0  0  0  0  0  0  0  0  0
   54.3047   76.9138   28.5657 H   0  0  0  0  0  0  0  0  0  0  0  0
   54.3447   81.7970   27.5972 H   0  0  0  0  0  0  0  0  0  0  0  0
   52.4792   82.3897   26.5688 H   0  0  0  0  0  0  0  0  0  0  0  0
   53.4081   83.0638   25.1870 H   0  0  0  0  0  0  0  0  0  0  0  0
   52.9272   81.3331   25.1870 H   0  0  0  0  0  0  0  0  0  0  0  0
   56.0977   82.5564   25.2705 H   0  0  0  0  0  0  0  0  0  0  0  0
   55.0604   84.6934   27.1621 H   0  0  0  0  0  0  0  0  0  0  0  0
   55.9436   84.8851   25.6097 H   0  0  0  0  0  0  0  0  0  0  0  0
   54.2418   84.3104   25.6097 H   0  0  0  0  0  0  0  0  0  0  0  0
   56.6260   83.6020   27.7880 H   0  0  0  0  0  0  0  0  0  0  0  0
   58.0784   79.4974   31.7722 H   0  0  0  0  0  0  0  0  0  0  0  0
   59.0999   81.3740   33.0520 H   0  0  0  0  0  0  0  0  0  0  0  0
  1  2  1  0
  2  3  1  0
  2  4  1  0
  4  5  1  0
  4  6  1  0
  6  7  2  0
  6  8  2  0
  6  9  1  0
  9 10  1  0
 10 11  2  0
 11 12  1  0
 12 13  1  0
 13 14  1  0
 14 15  2  0
 15 16  1  0
 16 17  2  0
 17 18  1  0
 18 19  1  0
 18 20  1  0
 18 21  1  0
 17 22  1  0
 22 23  1  0
 23 24  1  0
 24 25  1  0
 24 26  1  0
 26 27  1  0
 26 28  1  0
 22 29  2  0
 12 30  2  0
 30 31  1  0
 31  9  2  0
 29 14  1  0
  1 32  1  0
  1 33  1  0
  1 34  1  0
  2 35  1  0
  3 36  1  0
  3 37  1  0
  3 38  1  0
  4 39  1  0
 10 40  1  0
 11 41  1  0
 13 42  1  0
 16 43  1  0
 24 44  1  1
 25 45  1  0
 25 46  1  0
 25 47  1  0
 26 48  1  6
 27 49  1  0
 27 50  1  0
 27 51  1  0
 28 52  1  0
 30 53  1  0
 31 54  1  0
M  END
>  <meeko>  (1) 
{"is_sidechain": false}

>  <smiles>  (1) 
CC(C)C(F)S(=O)(=O)c1ccc(Nc2ncc(C(F)(F)F)c(O[C@H](C)[C@@H](C)O)n2)cc1

>  <vina_score>  (1) 
-8.100

>  <job_id>  (1) 
ac955bee34834f06

$$$$
