
     RDKit          3D

 44 45  0  0  0  0  0  0  0  0999 V2000
   62.4990   82.5520   31.3710 C   0  0  0  0  0  0  0  0  0  0  0  0
   61.5480   83.5180   30.9620 O   0  0  0  0  0  0  0  0  0  0  0  0
   60.0220   83.3620   31.4920 S   0  0  0  0  0  0  0  0  0  0  0  0
   59.2360   84.5290   31.1570 O   0  0  0  0  0  0  0  0  0  0  0  0
   60.0620   83.1800   33.5220 S   0  0  0  0  0  0  0  0  0  0  0  0
   59.3570   81.9210   30.7420 C   0  0  0  0  0  0  0  0  0  0  0  0
   58.6700   80.9880   31.5150 C   0  0  0  0  0  0  0  0  0  0  0  0
   58.1170   79.8570   30.9040 C   0  0  0  0  0  0  0  0  0  0  0  0
   58.2390   79.6400   29.5260 C   0  0  0  0  0  0  0  0  0  0  0  0
   57.7000   78.5340   28.8600 N   0  0  0  0  0  0  0  0  0  0  0  0
   56.4100   78.0420   28.6840 C   0  0  0  0  0  0  0  0  0  0  0  0
   56.0400   76.8400   29.1420 N   0  0  0  0  0  0  0  0  0  0  0  0
   54.7610   76.4740   28.9350 C   0  0  0  0  0  0  0  0  0  0  0  0
   53.8450   77.2610   28.2800 C   0  0  0  0  0  0  0  0  0  0  0  0
   52.0740   76.6510   28.0370 Br  0  0  0  0  0  0  0  0  0  0  0  0
   54.3050   78.4850   27.8120 C   0  0  0  0  0  0  0  0  0  0  0  0
   53.4140   79.3690   27.1830 N   0  0  0  0  0  0  0  0  0  0  0  0
   53.4840   79.6160   25.7230 C   0  0  2  0  0  0  0  0  0  0  0  0
   53.9320   78.3820   24.9430 C   0  0  0  0  0  0  0  0  0  0  0  0
   54.2740   80.9100   25.4000 C   0  0  1  0  0  0  0  0  0  0  0  0
   54.0500   82.0160   26.4240 C   0  0  0  0  0  0  0  0  0  0  0  0
   55.6770   80.6050   25.3950 O   0  0  0  0  0  0  0  0  0  0  0  0
   55.5750   78.8700   28.0310 N   0  0  0  0  0  0  0  0  0  0  0  0
   58.9280   80.6050   28.7700 C   0  0  0  0  0  0  0  0  0  0  0  0
   59.4840   81.7410   29.3660 C   0  0  0  0  0  0  0  0  0  0  0  0
   62.5351   82.5153   32.4698 H   0  0  0  0  0  0  0  0  0  0  0  0
   62.2103   81.5650   30.9805 H   0  0  0  0  0  0  0  0  0  0  0  0
   63.4904   82.8252   30.9805 H   0  0  0  0  0  0  0  0  0  0  0  0
   58.5628   81.1393   32.5993 H   0  0  0  0  0  0  0  0  0  0  0  0
   57.5753   79.1233   31.5189 H   0  0  0  0  0  0  0  0  0  0  0  0
   58.3500   77.9140   28.3990 H   0  0  0  0  0  0  0  0  0  0  0  0
   54.4322   75.4935   29.3099 H   0  0  0  0  0  0  0  0  0  0  0  0
   52.4630   79.1460   27.4710 H   0  0  0  0  0  0  0  0  0  0  0  0
   52.4617   79.8053   25.3636 H   0  0  0  0  0  0  0  0  0  0  0  0
   54.2203   77.5878   25.6473 H   0  0  0  0  0  0  0  0  0  0  0  0
   53.1050   78.0282   24.3099 H   0  0  0  0  0  0  0  0  0  0  0  0
   54.7934   78.6412   24.3099 H   0  0  0  0  0  0  0  0  0  0  0  0
   53.9169   81.2680   24.4231 H   0  0  0  0  0  0  0  0  0  0  0  0
   54.1344   81.5991   27.4384 H   0  0  0  0  0  0  0  0  0  0  0  0
   54.8072   82.8019   26.2864 H   0  0  0  0  0  0  0  0  0  0  0  0
   53.0467   82.4454   26.2864 H   0  0  0  0  0  0  0  0  0  0  0  0
   55.7420   79.7730   24.8830 H   0  0  0  0  0  0  0  0  0  0  0  0
   59.0320   80.4628   27.6842 H   0  0  0  0  0  0  0  0  0  0  0  0
   60.0162   82.4850   28.7550 H   0  0  0  0  0  0  0  0  0  0  0  0
  1  2  1  0
  2  3  1  0
  3  4  2  0
  3  5  2  0
  3  6  1  0
  6  7  1  0
  7  8  2  0
  8  9  1  0
  9 10  1  0
 10 11  1  0
 11 12  2  0
 12 13  1  0
 13 14  2  0
 14 15  1  0
 14 16  1  0
 16 17  1  0
 17 18  1  0
 18 19  1  0
 18 20  1  0
 20 21  1  0
 20 22  1  0
 16 23  2  0
  9 24  2  0
 24 25  1  0
 25  6  2  0
 23 11  1  0
  1 26  1  0
  1 27  1  0
  1 28  1  0
  7 29  1  0
  8 30  1  0
 10 31  1  0
 13 32  1  0
 17 33  1  0
 18 34  1  6
 19 35  1  0
 19 36  1  0
 19 37  1  0
 20 38  1  6
 21 39  1  0
 21 40  1  0
 21 41  1  0
 22 42  1  0
 24 43  1  0
 25 44  1  0
M  END
>  <meeko>  (1) 
{"is_sidechain": false}

>  <smiles>  (1) 
COS(=O)(=S)c1ccc(Nc2ncc(Br)c(N[C@H](C)[C@@H](C)O)n2)cc1

>  <vina_score>  (1) 
-7.275

>  <job_id>  (1) 
ad9e9480befd662f

$$$$
