
     RDKit          3D

 51 54  0  0  0  0  0  0  0  0999 V2000
   54.3940   75.7320   29.8260 N   0  0  0  0  0  0  0  0  0  0  0  0
   54.0230   76.3280   28.5910 C   0  0  0  0  0  0  0  0  0  0  0  0
   53.0120   75.7440   27.8300 C   0  0  0  0  0  0  0  0  0  0  0  0
   52.5940   76.3160   26.6300 C   0  0  0  0  0  0  0  0  0  0  0  0
   53.1630   77.5390   26.2580 C   0  0  0  0  0  0  0  0  0  0  0  0
   52.9370   78.2920   25.1270 N   0  0  0  0  0  0  0  0  0  0  0  0
   53.6480   79.4620   25.1690 C   0  0  0  0  0  0  0  0  0  0  0  0
   53.6120   80.3420   24.1720 O   0  0  0  0  0  0  0  0  0  0  0  0
   54.3080   79.4850   26.3820 C   0  0  0  0  0  0  0  0  0  0  0  0
   55.0360   80.5050   26.9040 N   0  0  0  0  0  0  0  0  0  0  0  0
   55.8580   81.4240   26.1420 C   0  0  0  0  0  0  0  0  0  0  0  0
   55.2870   82.8000   26.1010 C   0  0  0  0  0  0  0  0  0  0  0  0
   55.8360   84.0390   26.3660 C   0  0  0  0  0  0  0  0  0  0  0  0
   54.8220   85.0070   26.1580 C   0  0  0  0  0  0  0  0  0  0  0  0
   53.6850   84.3340   25.7700 C   0  0  0  0  0  0  0  0  0  0  0  0
   53.9770   82.9960   25.7400 N   0  0  0  0  0  0  0  0  0  0  0  0
   54.1000   78.2220   27.0400 C   0  0  0  0  0  0  0  0  0  0  0  0
   54.5650   77.6040   28.2390 C   0  0  0  0  0  0  0  0  0  0  0  0
   55.5860   78.1050   29.1260 N   0  0  0  0  0  0  0  0  0  0  0  0
   56.8700   78.3190   28.7160 N   0  0  0  0  0  0  0  0  0  0  0  0
   57.7000   79.3340   29.2470 C   0  0  0  0  0  0  0  0  0  0  0  0
   58.5510   80.1080   28.4480 C   0  0  0  0  0  0  0  0  0  0  0  0
   59.4090   81.0510   29.0220 C   0  0  0  0  0  0  0  0  0  0  0  0
   59.4280   81.2120   30.4080 C   0  0  0  0  0  0  0  0  0  0  0  0
   60.5170   82.4080   31.1330 S   0  0  0  0  0  0  0  0  0  0  0  0
   61.9470   82.1070   30.2940 N   0  0  0  0  0  0  0  0  0  0  0  0
   60.0940   83.7270   30.7210 O   0  0  0  0  0  0  0  0  0  0  0  0
   60.7310   82.0570   32.5160 O   0  0  0  0  0  0  0  0  0  0  0  0
   58.6220   80.4210   31.2270 C   0  0  0  0  0  0  0  0  0  0  0  0
   57.7670   79.4830   30.6430 C   0  0  0  0  0  0  0  0  0  0  0  0
   54.5750   76.4210   30.5490 H   0  0  0  0  0  0  0  0  0  0  0  0
   53.6700   75.0730   30.1120 H   0  0  0  0  0  0  0  0  0  0  0  0
   52.5364   74.8168   28.1822 H   0  0  0  0  0  0  0  0  0  0  0  0
   51.8421   75.8227   25.9966 H   0  0  0  0  0  0  0  0  0  0  0  0
   52.3230   78.0060   24.3800 H   0  0  0  0  0  0  0  0  0  0  0  0
   53.0680   81.1060   24.4250 H   0  0  0  0  0  0  0  0  0  0  0  0
   54.6690   80.9320   27.7590 H   0  0  0  0  0  0  0  0  0  0  0  0
   56.8560   81.4697   26.6024 H   0  0  0  0  0  0  0  0  0  0  0  0
   55.9065   81.0511   25.1083 H   0  0  0  0  0  0  0  0  0  0  0  0
   56.8710   84.2382   26.6809 H   0  0  0  0  0  0  0  0  0  0  0  0
   54.9243   86.0950   26.2834 H   0  0  0  0  0  0  0  0  0  0  0  0
   52.7140   84.7902   25.5271 H   0  0  0  0  0  0  0  0  0  0  0  0
   53.3470   82.2430   25.4840 H   0  0  0  0  0  0  0  0  0  0  0  0
   55.1570   78.8750   29.6500 H   0  0  0  0  0  0  0  0  0  0  0  0
   57.4080   77.4480   28.5900 H   0  0  0  0  0  0  0  0  0  0  0  0
   58.5443   79.9724   27.3564 H   0  0  0  0  0  0  0  0  0  0  0  0
   60.0651   81.6623   28.3849 H   0  0  0  0  0  0  0  0  0  0  0  0
   62.4980   81.4260   30.8190 H   0  0  0  0  0  0  0  0  0  0  0  0
   62.4790   82.9530   30.0940 H   0  0  0  0  0  0  0  0  0  0  0  0
   58.6592   80.5345   32.3205 H   0  0  0  0  0  0  0  0  0  0  0  0
   57.1364   78.8512   31.2858 H   0  0  0  0  0  0  0  0  0  0  0  0
  1  2  1  0
  2  3  2  0
  3  4  1  0
  4  5  2  0
  5  6  1  0
  6  7  1  0
  7  8  1  0
  7  9  2  0
  9 10  1  0
 10 11  1  0
 11 12  1  0
 12 13  2  0
 13 14  1  0
 14 15  2  0
 15 16  1  0
  9 17  1  0
 17 18  2  0
 18 19  1  0
 19 20  1  0
 20 21  1  0
 21 22  1  0
 22 23  2  0
 23 24  1  0
 24 25  1  0
 25 26  1  0
 25 27  2  0
 25 28  2  0
 24 29  2  0
 29 30  1  0
 18  2  1  0
 30 21  2  0
 17  5  1  0
 16 12  1  0
  1 31  1  0
  1 32  1  0
  3 33  1  0
  4 34  1  0
  6 35  1  0
  8 36  1  0
 10 37  1  0
 11 38  1  0
 11 39  1  0
 13 40  1  0
 14 41  1  0
 15 42  1  0
 16 43  1  0
 19 44  1  0
 20 45  1  0
 22 46  1  0
 23 47  1  0
 26 48  1  0
 26 49  1  0
 29 50  1  0
 30 51  1  0
M  END
>  <meeko>  (1) 
{"is_sidechain": false}

>  <smiles>  (1) 
Nc1ccc2[nH]c(O)c(NCc3ccc[nH]3)c2c1NNc1ccc(S(N)(=O)=O)cc1

>  <vina_score>  (1) 
-8.118

>  <job_id>  (1) 
adf28c4e81078b7c

$$$$
