
     RDKit          3D

 40 41  0  0  0  0  0  0  0  0999 V2000
   58.9440   81.6820   31.0660 C   0  0  0  0  0  0  0  0  0  0  0  0
   58.5110   80.2270   30.9440 C   0  0  0  0  0  0  0  0  0  0  0  0
   58.3250   79.8090   29.4890 C   0  0  0  0  0  0  0  0  0  0  0  0
   59.2210   80.0280   28.6680 O   0  0  0  0  0  0  0  0  0  0  0  0
   57.1560   79.1280   29.1340 N   0  0  0  0  0  0  0  0  0  0  0  0
   56.7700   78.0010   29.9810 C   0  0  0  0  0  0  0  0  0  0  0  0
   56.2690   79.4820   28.0740 C   0  0  0  0  0  0  0  0  0  0  0  0
   55.1150   78.7260   27.8320 C   0  0  0  0  0  0  0  0  0  0  0  0
   54.2470   79.0520   26.7810 C   0  0  0  0  0  0  0  0  0  0  0  0
   54.5170   80.1290   25.9260 C   0  0  0  0  0  0  0  0  0  0  0  0
   53.6050   80.4700   24.8210 C   0  0  0  0  0  0  0  0  0  0  0  0
   53.0550   79.4660   24.0030 C   0  0  0  0  0  0  0  0  0  0  0  0
   52.1850   79.7840   22.9560 C   0  0  0  0  0  0  0  0  0  0  0  0
   51.8630   81.1200   22.7130 C   0  0  0  0  0  0  0  0  0  0  0  0
   50.7510   81.5190   21.3910 S   0  0  0  0  0  0  0  0  0  0  0  0
   49.2810   80.9820   22.0160 N   0  0  0  0  0  0  0  0  0  0  0  0
   50.6850   82.9550   21.2650 O   0  0  0  0  0  0  0  0  0  0  0  0
   51.0370   80.6490   20.2720 O   0  0  0  0  0  0  0  0  0  0  0  0
   52.3840   82.1350   23.5160 C   0  0  0  0  0  0  0  0  0  0  0  0
   53.2530   81.8060   24.5610 C   0  0  0  0  0  0  0  0  0  0  0  0
   55.6890   80.8620   26.1520 C   0  0  0  0  0  0  0  0  0  0  0  0
   56.5550   80.5390   27.2070 C   0  0  0  0  0  0  0  0  0  0  0  0
   59.0246   81.9527   32.1291 H   0  0  0  0  0  0  0  0  0  0  0  0
   59.9209   81.8159   30.5785 H   0  0  0  0  0  0  0  0  0  0  0  0
   58.1993   82.3283   30.5785 H   0  0  0  0  0  0  0  0  0  0  0  0
   59.2799   79.5875   31.4022 H   0  0  0  0  0  0  0  0  0  0  0  0
   57.5445   80.1148   31.4571 H   0  0  0  0  0  0  0  0  0  0  0  0
   56.8679   78.2868   31.0387 H   0  0  0  0  0  0  0  0  0  0  0  0
   55.7261   77.7250   29.7709 H   0  0  0  0  0  0  0  0  0  0  0  0
   57.4255   77.1430   29.7709 H   0  0  0  0  0  0  0  0  0  0  0  0
   54.8867   77.8640   28.4761 H   0  0  0  0  0  0  0  0  0  0  0  0
   53.3383   78.4522   26.6246 H   0  0  0  0  0  0  0  0  0  0  0  0
   53.3139   78.4135   24.1904 H   0  0  0  0  0  0  0  0  0  0  0  0
   51.7577   78.9877   22.3288 H   0  0  0  0  0  0  0  0  0  0  0  0
   48.5390   81.2070   21.3520 H   0  0  0  0  0  0  0  0  0  0  0  0
   49.2840   79.9930   22.2640 H   0  0  0  0  0  0  0  0  0  0  0  0
   52.1136   83.1847   23.3288 H   0  0  0  0  0  0  0  0  0  0  0  0
   53.6684   82.6066   25.1906 H   0  0  0  0  0  0  0  0  0  0  0  0
   55.9346   81.7058   25.4904 H   0  0  0  0  0  0  0  0  0  0  0  0
   57.4731   81.1269   27.3537 H   0  0  0  0  0  0  0  0  0  0  0  0
  1  2  1  0
  2  3  1  0
  3  4  2  0
  3  5  1  0
  5  6  1  0
  5  7  1  0
  7  8  1  0
  8  9  2  0
  9 10  1  0
 10 11  1  0
 11 12  1  0
 12 13  2  0
 13 14  1  0
 14 15  1  0
 15 16  1  0
 15 17  2  0
 15 18  2  0
 14 19  2  0
 19 20  1  0
 10 21  2  0
 21 22  1  0
 22  7  2  0
 20 11  2  0
  1 23  1  0
  1 24  1  0
  1 25  1  0
  2 26  1  0
  2 27  1  0
  6 28  1  0
  6 29  1  0
  6 30  1  0
  8 31  1  0
  9 32  1  0
 12 33  1  0
 13 34  1  0
 16 35  1  0
 16 36  1  0
 19 37  1  0
 20 38  1  0
 21 39  1  0
 22 40  1  0
M  END
>  <meeko>  (1) 
{"is_sidechain": false}

>  <smiles>  (1) 
CCC(=O)N(C)c1ccc(-c2ccc(S(N)(=O)=O)cc2)cc1

>  <vina_score>  (1) 
-7.672

>  <job_id>  (1) 
ae359eaf35608ae5

$$$$
