
     RDKit          3D

 58 61  0  0  0  0  0  0  0  0999 V2000
   52.4880   81.3850   23.8540 C   0  0  0  0  0  0  0  0  0  0  0  0
   52.9760   80.2010   24.6100 C   0  0  0  0  0  0  0  0  0  0  0  0
   52.8120   78.9540   24.2220 N   0  0  0  0  0  0  0  0  0  0  0  0
   53.3720   78.1880   25.1980 C   0  0  0  0  0  0  0  0  0  0  0  0
   53.9050   78.9600   26.2130 C   0  0  0  0  0  0  0  0  0  0  0  0
   54.5810   78.5120   27.4170 C   0  0  0  0  0  0  0  0  0  0  0  0
   54.0860   77.4720   28.1710 C   0  0  0  0  0  0  0  0  0  0  0  0
   54.8090   77.1590   29.2940 C   0  0  0  0  0  0  0  0  0  0  0  0
   55.9220   77.8150   29.6620 N   0  0  0  0  0  0  0  0  0  0  0  0
   56.3220   78.8340   28.8720 C   0  0  0  0  0  0  0  0  0  0  0  0
   57.5320   79.5970   29.2630 C   0  0  0  0  0  0  0  0  0  0  0  0
   58.2620   80.3230   28.3410 C   0  0  0  0  0  0  0  0  0  0  0  0
   59.3630   80.9820   28.8220 C   0  0  0  0  0  0  0  0  0  0  0  0
   59.7410   80.9480   30.1090 N   0  0  0  0  0  0  0  0  0  0  0  0
   58.9900   80.2310   30.9550 C   0  0  0  0  0  0  0  0  0  0  0  0
   59.2870   80.1300   32.3100 N   0  0  0  0  0  0  0  0  0  0  0  0
   60.0490   80.8900   33.2000 C   0  0  0  0  0  0  0  0  0  0  0  0
   59.8180   82.2390   33.4720 C   0  0  0  0  0  0  0  0  0  0  0  0
   60.6260   82.9500   34.3700 C   0  0  0  0  0  0  0  0  0  0  0  0
   61.7000   82.3270   35.0180 C   0  0  0  0  0  0  0  0  0  0  0  0
   62.5140   83.1510   35.9590 C   0  0  0  0  0  0  0  0  0  0  0  0
   62.6670   82.8240   37.1320 O   0  0  0  0  0  0  0  0  0  0  0  0
   63.2450   84.6490   35.3690 S   0  0  0  0  0  0  0  0  0  0  0  0
   64.6260   83.9790   34.6030 N   0  0  0  0  0  0  0  0  0  0  0  0
   64.5550   83.5780   33.2930 C   0  0  0  0  0  0  0  0  0  0  0  0
   65.6850   82.9240   32.8950 N   0  0  0  0  0  0  0  0  0  0  0  0
   63.6320   83.7550   32.5100 O   0  0  0  0  0  0  0  0  0  0  0  0
   61.9410   80.9750   34.7560 C   0  0  0  0  0  0  0  0  0  0  0  0
   61.1260   80.2730   33.8570 C   0  0  0  0  0  0  0  0  0  0  0  0
   57.8990   79.5540   30.5690 N   0  0  0  0  0  0  0  0  0  0  0  0
   55.6840   79.2080   27.7430 N   0  0  0  0  0  0  0  0  0  0  0  0
   53.6660   80.2640   25.8120 N   0  0  0  0  0  0  0  0  0  0  0  0
   54.0710   81.5120   26.4610 C   0  0  0  0  0  0  0  0  0  0  0  0
   52.9340   82.5090   26.7030 C   0  0  0  0  0  0  0  0  0  0  0  0
   55.2690   82.1610   25.7700 C   0  0  0  0  0  0  0  0  0  0  0  0
   52.1668   82.1644   24.5607 H   0  0  0  0  0  0  0  0  0  0  0  0
   53.2985   81.7755   23.2211 H   0  0  0  0  0  0  0  0  0  0  0  0
   51.6377   81.0910   23.2211 H   0  0  0  0  0  0  0  0  0  0  0  0
   53.3973   77.0884   25.1810 H   0  0  0  0  0  0  0  0  0  0  0  0
   53.1716   76.9282   27.8916 H   0  0  0  0  0  0  0  0  0  0  0  0
   54.4596   76.3286   29.9252 H   0  0  0  0  0  0  0  0  0  0  0  0
   57.9752   80.3693   27.2801 H   0  0  0  0  0  0  0  0  0  0  0  0
   59.9685   81.5695   28.1162 H   0  0  0  0  0  0  0  0  0  0  0  0
   58.7830   79.3390   32.6860 H   0  0  0  0  0  0  0  0  0  0  0  0
   58.9851   82.7548   32.9717 H   0  0  0  0  0  0  0  0  0  0  0  0
   60.4138   84.0110   34.5683 H   0  0  0  0  0  0  0  0  0  0  0  0
   65.1540   83.3400   35.1930 H   0  0  0  0  0  0  0  0  0  0  0  0
   66.5580   83.2870   33.2530 H   0  0  0  0  0  0  0  0  0  0  0  0
   65.6910   82.7380   31.8990 H   0  0  0  0  0  0  0  0  0  0  0  0
   62.7736   80.4599   35.2574 H   0  0  0  0  0  0  0  0  0  0  0  0
   61.3356   79.2111   33.6611 H   0  0  0  0  0  0  0  0  0  0  0  0
   54.3917   81.2072   27.4681 H   0  0  0  0  0  0  0  0  0  0  0  0
   52.7850   82.6397   27.7850 H   0  0  0  0  0  0  0  0  0  0  0  0
   53.1923   83.4770   26.2489 H   0  0  0  0  0  0  0  0  0  0  0  0
   52.0080   82.1264   26.2489 H   0  0  0  0  0  0  0  0  0  0  0  0
   55.9690   82.5402   26.5291 H   0  0  0  0  0  0  0  0  0  0  0  0
   55.7781   81.4153   25.1417 H   0  0  0  0  0  0  0  0  0  0  0  0
   54.9225   82.9948   25.1417 H   0  0  0  0  0  0  0  0  0  0  0  0
  1  2  1  0
  2  3  2  0
  3  4  1  0
  4  5  2  0
  5  6  1  0
  6  7  1  0
  7  8  2  0
  8  9  1  0
  9 10  2  0
 10 11  1  0
 11 12  1  0
 12 13  2  0
 13 14  1  0
 14 15  2  0
 15 16  1  0
 16 17  1  0
 17 18  1  0
 18 19  2  0
 19 20  1  0
 20 21  1  0
 21 22  2  0
 21 23  1  0
 23 24  1  0
 24 25  1  0
 25 26  1  0
 25 27  2  0
 20 28  2  0
 28 29  1  0
 15 30  1  0
 10 31  1  0
  5 32  1  0
 32 33  1  0
 33 34  1  0
 33 35  1  0
 32  2  1  0
 31  6  2  0
 30 11  2  0
 29 17  2  0
  1 36  1  0
  1 37  1  0
  1 38  1  0
  4 39  1  0
  7 40  1  0
  8 41  1  0
 12 42  1  0
 13 43  1  0
 16 44  1  0
 18 45  1  0
 19 46  1  0
 24 47  1  0
 26 48  1  0
 26 49  1  0
 28 50  1  0
 29 51  1  0
 33 52  1  0
 34 53  1  0
 34 54  1  0
 34 55  1  0
 35 56  1  0
 35 57  1  0
 35 58  1  0
M  END
>  <meeko>  (1) 
{"is_sidechain": false}

>  <smiles>  (1) 
Cc1ncc(-c2ccnc(-c3ccnc(Nc4ccc(C(=O)SNC(N)=O)cc4)n3)n2)n1C(C)C

>  <vina_score>  (1) 
-8.443

>  <job_id>  (1) 
ae3ca049364c72ea

$$$$
