
     RDKit          3D

 55 57  0  0  0  0  0  0  0  0999 V2000
   55.5530   83.5110   26.7290 C   0  0  0  0  0  0  0  0  0  0  0  0
   54.1530   82.9240   26.8750 C   0  0  0  0  0  0  0  0  0  0  0  0
   53.9700   81.6250   26.0590 C   0  0  2  0  0  0  0  0  0  0  0  0
   55.2580   80.9220   26.0600 N   0  0  0  0  0  0  0  0  0  0  0  0
   55.3490   79.8580   26.9540 C   0  0  0  0  0  0  0  0  0  0  0  0
   56.4830   79.8420   27.6810 N   0  0  0  0  0  0  0  0  0  0  0  0
   56.7220   78.8280   28.5530 C   0  0  0  0  0  0  0  0  0  0  0  0
   57.9120   78.7720   29.2900 N   0  0  0  0  0  0  0  0  0  0  0  0
   58.8030   79.9090   29.1330 C   0  0  0  0  0  0  0  0  0  0  0  0
   58.6630   80.8890   30.2770 C   0  0  0  0  0  0  0  0  0  0  0  0
   58.3330   80.4360   31.5630 C   0  0  0  0  0  0  0  0  0  0  0  0
   58.1850   81.3390   32.6170 C   0  0  0  0  0  0  0  0  0  0  0  0
   58.3620   82.7030   32.3960 C   0  0  0  0  0  0  0  0  0  0  0  0
   58.6830   83.1670   31.1220 C   0  0  0  0  0  0  0  0  0  0  0  0
   58.8310   82.2660   30.0660 C   0  0  0  0  0  0  0  0  0  0  0  0
   55.7350   77.8370   28.6830 C   0  0  0  0  0  0  0  0  0  0  0  0
   55.6580   76.6950   29.4550 N   0  0  0  0  0  0  0  0  0  0  0  0
   54.4950   76.1610   29.1450 C   0  0  0  0  0  0  0  0  0  0  0  0
   53.8240   76.9000   28.2050 N   0  0  0  0  0  0  0  0  0  0  0  0
   52.5170   76.6030   27.6360 C   0  0  0  0  0  0  0  0  0  0  0  0
   51.4450   76.4820   28.7190 C   0  0  0  0  0  0  0  0  0  0  0  0
   52.5590   75.3570   26.7530 C   0  0  0  0  0  0  0  0  0  0  0  0
   54.6120   77.9750   27.8900 C   0  0  0  0  0  0  0  0  0  0  0  0
   54.3610   78.9470   27.0030 N   0  0  0  0  0  0  0  0  0  0  0  0
   53.5310   81.8950   24.5860 C   0  0  1  0  0  0  0  0  0  0  0  0
   52.8740   80.6950   23.9120 C   0  0  0  0  0  0  0  0  0  0  0  0
   52.6430   83.0180   24.5110 O   0  0  0  0  0  0  0  0  0  0  0  0
   55.9812   83.6905   27.7262 H   0  0  0  0  0  0  0  0  0  0  0  0
   56.1911   82.8047   26.1777 H   0  0  0  0  0  0  0  0  0  0  0  0
   55.4965   84.4612   26.1777 H   0  0  0  0  0  0  0  0  0  0  0  0
   53.9721   82.7022   27.9371 H   0  0  0  0  0  0  0  0  0  0  0  0
   53.4372   83.6652   26.4899 H   0  0  0  0  0  0  0  0  0  0  0  0
   53.1712   81.0275   26.5227 H   0  0  0  0  0  0  0  0  0  0  0  0
   55.4740   80.5030   25.1560 H   0  0  0  0  0  0  0  0  0  0  0  0
   58.3550   77.8690   29.1320 H   0  0  0  0  0  0  0  0  0  0  0  0
   59.8411   79.5468   29.0984 H   0  0  0  0  0  0  0  0  0  0  0  0
   58.5366   80.4285   28.2007 H   0  0  0  0  0  0  0  0  0  0  0  0
   58.1897   79.3602   31.7422 H   0  0  0  0  0  0  0  0  0  0  0  0
   57.9286   80.9735   33.6223 H   0  0  0  0  0  0  0  0  0  0  0  0
   58.2483   83.4140   33.2276 H   0  0  0  0  0  0  0  0  0  0  0  0
   58.8200   84.2445   30.9481 H   0  0  0  0  0  0  0  0  0  0  0  0
   59.0811   82.6381   29.0615 H   0  0  0  0  0  0  0  0  0  0  0  0
   54.1075   75.2317   29.5879 H   0  0  0  0  0  0  0  0  0  0  0  0
   52.2416   77.4531   26.9945 H   0  0  0  0  0  0  0  0  0  0  0  0
   51.9180   76.5354   29.7107 H   0  0  0  0  0  0  0  0  0  0  0  0
   50.7221   77.3043   28.6128 H   0  0  0  0  0  0  0  0  0  0  0  0
   50.9235   75.5193   28.6128 H   0  0  0  0  0  0  0  0  0  0  0  0
   52.5893   74.4589   27.3874 H   0  0  0  0  0  0  0  0  0  0  0  0
   51.6613   75.3272   26.1179 H   0  0  0  0  0  0  0  0  0  0  0  0
   53.4566   75.3877   26.1179 H   0  0  0  0  0  0  0  0  0  0  0  0
   54.4624   82.1088   24.0413 H   0  0  0  0  0  0  0  0  0  0  0  0
   52.4959   80.0045   24.6803 H   0  0  0  0  0  0  0  0  0  0  0  0
   52.0383   81.0388   23.2848 H   0  0  0  0  0  0  0  0  0  0  0  0
   53.6139   80.1762   23.2848 H   0  0  0  0  0  0  0  0  0  0  0  0
   52.2930   83.1890   25.4030 H   0  0  0  0  0  0  0  0  0  0  0  0
  1  2  1  0
  2  3  1  0
  3  4  1  0
  4  5  1  0
  5  6  2  0
  6  7  1  0
  7  8  1  0
  8  9  1  0
  9 10  1  0
 10 11  2  0
 11 12  1  0
 12 13  2  0
 13 14  1  0
 14 15  2  0
  7 16  2  0
 16 17  1  0
 17 18  2  0
 18 19  1  0
 19 20  1  0
 20 21  1  0
 20 22  1  0
 19 23  1  0
 23 24  2  0
  3 25  1  0
 25 26  1  0
 25 27  1  0
 24  5  1  0
 15 10  1  0
 23 16  1  0
  1 28  1  0
  1 29  1  0
  1 30  1  0
  2 31  1  0
  2 32  1  0
  3 33  1  1
  4 34  1  0
  8 35  1  0
  9 36  1  0
  9 37  1  0
 11 38  1  0
 12 39  1  0
 13 40  1  0
 14 41  1  0
 15 42  1  0
 18 43  1  0
 20 44  1  0
 21 45  1  0
 21 46  1  0
 21 47  1  0
 22 48  1  0
 22 49  1  0
 22 50  1  0
 25 51  1  6
 26 52  1  0
 26 53  1  0
 26 54  1  0
 27 55  1  0
M  END
>  <meeko>  (1) 
{"is_sidechain": false}

>  <smiles>  (1) 
CC[C@H](Nc1nc(NCc2ccccc2)c2ncn(C(C)C)c2n1)[C@@H](C)O

>  <vina_score>  (1) 
-7.896

>  <job_id>  (1) 
ae89d7a6eeff384b

$$$$
