
     RDKit          3D

 42 43  0  0  0  0  0  0  0  0999 V2000
   53.3420   82.9840   26.5570 C   0  0  0  0  0  0  0  0  0  0  0  0
   54.4160   82.0360   26.0180 C   0  0  0  0  0  0  0  0  0  0  0  0
   55.8170   82.5900   26.2840 C   0  0  0  0  0  0  0  0  0  0  0  0
   54.2530   80.6340   26.5800 C   0  0  0  0  0  0  0  0  0  0  0  0
   53.0600   79.9140   26.4260 C   0  0  0  0  0  0  0  0  0  0  0  0
   52.9350   78.6260   26.9470 C   0  0  0  0  0  0  0  0  0  0  0  0
   54.0000   78.0390   27.6280 C   0  0  0  0  0  0  0  0  0  0  0  0
   55.2070   78.7320   27.7960 C   0  0  0  0  0  0  0  0  0  0  0  0
   56.3620   78.0800   28.5490 C   0  0  0  0  0  0  0  0  0  0  0  0
   55.8160   77.0440   29.5410 C   0  0  0  0  0  0  0  0  0  0  0  0
   57.3310   79.1040   29.1400 C   0  0  0  0  0  0  0  0  0  0  0  0
   58.2560   79.8210   28.3620 C   0  0  0  0  0  0  0  0  0  0  0  0
   59.1320   80.7350   28.9540 C   0  0  0  0  0  0  0  0  0  0  0  0
   59.0860   80.9430   30.3330 C   0  0  0  0  0  0  0  0  0  0  0  0
   60.2060   82.0990   31.0750 S   0  0  0  0  0  0  0  0  0  0  0  0
   61.6410   81.7360   30.2700 N   0  0  0  0  0  0  0  0  0  0  0  0
   59.8490   83.4310   30.6450 O   0  0  0  0  0  0  0  0  0  0  0  0
   60.3730   81.7480   32.4650 O   0  0  0  0  0  0  0  0  0  0  0  0
   58.1890   80.2320   31.1300 C   0  0  0  0  0  0  0  0  0  0  0  0
   57.3160   79.3210   30.5310 C   0  0  0  0  0  0  0  0  0  0  0  0
   55.3170   80.0310   27.2690 C   0  0  0  0  0  0  0  0  0  0  0  0
   53.3585   82.9694   27.6568 H   0  0  0  0  0  0  0  0  0  0  0  0
   53.5422   84.0053   26.2008 H   0  0  0  0  0  0  0  0  0  0  0  0
   52.3535   82.6586   26.2008 H   0  0  0  0  0  0  0  0  0  0  0  0
   54.2861   81.9647   24.9280 H   0  0  0  0  0  0  0  0  0  0  0  0
   55.9851   82.6565   27.3690 H   0  0  0  0  0  0  0  0  0  0  0  0
   56.5669   81.9207   25.8371 H   0  0  0  0  0  0  0  0  0  0  0  0
   55.9064   83.5911   25.8371 H   0  0  0  0  0  0  0  0  0  0  0  0
   52.2145   80.3690   25.8893 H   0  0  0  0  0  0  0  0  0  0  0  0
   51.9932   78.0721   26.8200 H   0  0  0  0  0  0  0  0  0  0  0  0
   53.8926   77.0235   28.0370 H   0  0  0  0  0  0  0  0  0  0  0  0
   56.9925   77.5242   27.8394 H   0  0  0  0  0  0  0  0  0  0  0  0
   55.9981   77.3895   30.5693 H   0  0  0  0  0  0  0  0  0  0  0  0
   54.7347   76.9187   29.3823 H   0  0  0  0  0  0  0  0  0  0  0  0
   56.3238   76.0812   29.3823 H   0  0  0  0  0  0  0  0  0  0  0  0
   58.2910   79.6609   27.2743 H   0  0  0  0  0  0  0  0  0  0  0  0
   59.8545   81.2879   28.3357 H   0  0  0  0  0  0  0  0  0  0  0  0
   62.0110   80.8580   30.6410 H   0  0  0  0  0  0  0  0  0  0  0  0
   62.3270   82.4890   30.3180 H   0  0  0  0  0  0  0  0  0  0  0  0
   58.1693   80.3871   32.2188 H   0  0  0  0  0  0  0  0  0  0  0  0
   56.6041   78.7632   31.1572 H   0  0  0  0  0  0  0  0  0  0  0  0
   56.2573   80.5867   27.3995 H   0  0  0  0  0  0  0  0  0  0  0  0
  1  2  1  0
  2  3  1  0
  2  4  1  0
  4  5  2  0
  5  6  1  0
  6  7  2  0
  7  8  1  0
  8  9  1  0
  9 10  1  0
  9 11  1  0
 11 12  1  0
 12 13  2  0
 13 14  1  0
 14 15  1  0
 15 16  1  0
 15 17  2  0
 15 18  2  0
 14 19  2  0
 19 20  1  0
  8 21  2  0
 21  4  1  0
 20 11  2  0
  1 22  1  0
  1 23  1  0
  1 24  1  0
  2 25  1  0
  3 26  1  0
  3 27  1  0
  3 28  1  0
  5 29  1  0
  6 30  1  0
  7 31  1  0
  9 32  1  0
 10 33  1  0
 10 34  1  0
 10 35  1  0
 12 36  1  0
 13 37  1  0
 16 38  1  0
 16 39  1  0
 19 40  1  0
 20 41  1  0
 21 42  1  0
M  END
>  <meeko>  (1) 
{"is_sidechain": false}

>  <smiles>  (1) 
CC(C)c1cccc(C(C)c2ccc(S(N)(=O)=O)cc2)c1

>  <vina_score>  (1) 
-8.406

>  <job_id>  (1) 
aea837a97afb7a87

$$$$
