
     RDKit          3D

 70 75  0  0  0  0  0  0  0  0999 V2000
   52.9370   81.7340   22.1300 C   0  0  0  0  0  0  0  0  0  0  0  0
   52.1520   80.8140   23.0760 C   0  0  0  0  0  0  0  0  0  0  0  0
   50.6560   80.9830   22.7700 C   0  0  0  0  0  0  0  0  0  0  0  0
   52.4730   81.0890   24.5750 C   0  0  0  0  0  0  0  0  0  0  0  0
   52.9200   79.8220   25.3380 C   0  0  0  0  0  0  0  0  0  0  0  0
   54.4330   79.7530   25.5590 C   0  0  0  0  0  0  0  0  0  0  0  0
   54.8910   80.9180   26.3170 N   0  0  0  0  0  0  0  0  0  0  0  0
   56.0260   80.8650   27.1090 C   0  0  0  0  0  0  0  0  0  0  0  0
   56.6230   79.6640   27.4960 C   0  0  0  0  0  0  0  0  0  0  0  0
   57.7720   79.6490   28.2960 C   0  0  0  0  0  0  0  0  0  0  0  0
   58.3420   80.8450   28.7210 C   0  0  0  0  0  0  0  0  0  0  0  0
   59.4910   80.7750   29.5250 N   0  0  0  0  0  0  0  0  0  0  0  0
   59.5580   81.0160   30.8990 C   0  0  0  0  0  0  0  0  0  0  0  0
   58.5160   80.7170   31.6960 N   0  0  0  0  0  0  0  0  0  0  0  0
   58.5940   80.9770   33.0180 C   0  0  0  0  0  0  0  0  0  0  0  0
   59.7320   81.5840   33.5310 C   0  0  0  0  0  0  0  0  0  0  0  0
   60.1930   81.9780   34.8080 C   0  0  0  0  0  0  0  0  0  0  0  0
   61.4610   82.5090   34.6560 C   0  0  0  0  0  0  0  0  0  0  0  0
   61.7510   82.5030   33.2990 N   0  0  0  0  0  0  0  0  0  0  0  0
   60.7260   81.8930   32.6160 C   0  0  0  0  0  0  0  0  0  0  0  0
   60.6870   81.6290   31.3010 N   0  0  0  0  0  0  0  0  0  0  0  0
   63.0510   82.9820   32.7720 C   0  0  0  0  0  0  0  0  0  0  0  0
   63.9910   81.7640   32.5820 C   0  0  0  0  0  0  0  0  0  0  0  0
   65.3270   82.1150   31.9260 C   0  0  0  0  0  0  0  0  0  0  0  0
   65.1430   82.8890   30.6250 C   0  0  0  0  0  0  0  0  0  0  0  0
   64.2630   84.1210   30.8110 C   0  0  0  0  0  0  0  0  0  0  0  0
   62.9130   83.7510   31.4280 C   0  0  0  0  0  0  0  0  0  0  0  0
   63.6270   83.9790   33.8270 C   0  0  0  0  0  0  0  0  0  0  0  0
   63.5380   83.5050   35.1930 N   0  0  0  0  0  0  0  0  0  0  0  0
   62.3680   82.9720   35.6740 C   0  0  0  0  0  0  0  0  0  0  0  0
   62.1610   82.9110   36.8800 O   0  0  0  0  0  0  0  0  0  0  0  0
   57.7910   82.0210   28.3770 N   0  0  0  0  0  0  0  0  0  0  0  0
   56.6770   82.0020   27.5970 C   0  0  0  0  0  0  0  0  0  0  0  0
   54.1770   82.1830   26.1270 C   0  0  0  0  0  0  0  0  0  0  0  0
   53.5100   82.2160   24.7530 C   0  0  0  0  0  0  0  0  0  0  0  0
   53.5392   82.4398   22.7210 H   0  0  0  0  0  0  0  0  0  0  0  0
   53.6003   81.1277   21.4957 H   0  0  0  0  0  0  0  0  0  0  0  0
   52.2339   82.2936   21.4957 H   0  0  0  0  0  0  0  0  0  0  0  0
   52.4540   79.7706   22.9026 H   0  0  0  0  0  0  0  0  0  0  0  0
   50.0937   81.0465   23.7133 H   0  0  0  0  0  0  0  0  0  0  0  0
   50.5024   81.9042   22.1888 H   0  0  0  0  0  0  0  0  0  0  0  0
   50.3008   80.1193   22.1888 H   0  0  0  0  0  0  0  0  0  0  0  0
   51.5234   81.4227   25.0188 H   0  0  0  0  0  0  0  0  0  0  0  0
   52.4226   79.8111   26.3191 H   0  0  0  0  0  0  0  0  0  0  0  0
   52.6398   78.9543   24.7227 H   0  0  0  0  0  0  0  0  0  0  0  0
   54.6763   78.8378   26.1187 H   0  0  0  0  0  0  0  0  0  0  0  0
   54.9366   79.7428   24.5811 H   0  0  0  0  0  0  0  0  0  0  0  0
   56.1825   78.7115   27.1663 H   0  0  0  0  0  0  0  0  0  0  0  0
   58.2247   78.6902   28.5889 H   0  0  0  0  0  0  0  0  0  0  0  0
   60.0090   79.9260   29.3570 H   0  0  0  0  0  0  0  0  0  0  0  0
   57.7610   80.7096   33.6848 H   0  0  0  0  0  0  0  0  0  0  0  0
   59.6412   81.8797   35.7545 H   0  0  0  0  0  0  0  0  0  0  0  0
   64.1940   81.3246   33.5698 H   0  0  0  0  0  0  0  0  0  0  0  0
   63.4765   81.0629   31.9084 H   0  0  0  0  0  0  0  0  0  0  0  0
   65.9140   82.7298   32.6242 H   0  0  0  0  0  0  0  0  0  0  0  0
   65.8450   81.1739   31.6892 H   0  0  0  0  0  0  0  0  0  0  0  0
   66.1300   83.2097   30.2602 H   0  0  0  0  0  0  0  0  0  0  0  0
   64.6475   82.2243   29.9021 H   0  0  0  0  0  0  0  0  0  0  0  0
   64.7774   84.8321   31.4742 H   0  0  0  0  0  0  0  0  0  0  0  0
   64.0821   84.5711   29.8237 H   0  0  0  0  0  0  0  0  0  0  0  0
   62.3452   84.6755   31.6096 H   0  0  0  0  0  0  0  0  0  0  0  0
   62.3979   83.0859   30.7192 H   0  0  0  0  0  0  0  0  0  0  0  0
   64.6863   84.1589   33.5912 H   0  0  0  0  0  0  0  0  0  0  0  0
   63.0194   84.8939   33.7665 H   0  0  0  0  0  0  0  0  0  0  0  0
   64.0960   83.9430   35.9140 H   0  0  0  0  0  0  0  0  0  0  0  0
   56.2461   82.9764   27.3234 H   0  0  0  0  0  0  0  0  0  0  0  0
   53.4074   82.2855   26.9062 H   0  0  0  0  0  0  0  0  0  0  0  0
   54.8961   83.0127   26.1950 H   0  0  0  0  0  0  0  0  0  0  0  0
   53.0035   83.1846   24.6295 H   0  0  0  0  0  0  0  0  0  0  0  0
   54.2949   82.0717   23.9960 H   0  0  0  0  0  0  0  0  0  0  0  0
  1  2  1  0
  2  3  1  0
  2  4  1  0
  4  5  1  0
  5  6  1  0
  6  7  1  0
  7  8  1  0
  8  9  2  0
  9 10  1  0
 10 11  2  0
 11 12  1  0
 12 13  1  0
 13 14  2  0
 14 15  1  0
 15 16  2  0
 16 17  1  0
 17 18  2  0
 18 19  1  0
 19 20  1  0
 20 21  2  0
 19 22  1  0
 22 23  1  0
 23 24  1  0
 24 25  1  0
 25 26  1  0
 26 27  1  0
 22 28  1  0
 28 29  1  0
 29 30  1  0
 30 31  2  0
 11 32  1  0
 32 33  2  0
  7 34  1  0
 34 35  1  0
 35  4  1  0
 33  8  1  0
 21 13  1  0
 27 22  1  0
 20 16  1  0
 30 18  1  0
  1 36  1  0
  1 37  1  0
  1 38  1  0
  2 39  1  0
  3 40  1  0
  3 41  1  0
  3 42  1  0
  4 43  1  0
  5 44  1  0
  5 45  1  0
  6 46  1  0
  6 47  1  0
  9 48  1  0
 10 49  1  0
 12 50  1  0
 15 51  1  0
 17 52  1  0
 23 53  1  0
 23 54  1  0
 24 55  1  0
 24 56  1  0
 25 57  1  0
 25 58  1  0
 26 59  1  0
 26 60  1  0
 27 61  1  0
 27 62  1  0
 28 63  1  0
 28 64  1  0
 29 65  1  0
 33 66  1  0
 34 67  1  0
 34 68  1  0
 35 69  1  0
 35 70  1  0
M  END
>  <meeko>  (1) 
{"is_sidechain": false}

>  <smiles>  (1) 
CC(C)C1CCN(c2ccc(Nc3ncc4cc5n(c4n3)C3(CCCCC3)CNC5=O)nc2)CC1

>  <vina_score>  (1) 
-8.075

>  <job_id>  (1) 
aeb1493285bef816

$$$$
