
     RDKit          3D

 37 38  0  0  0  0  0  0  0  0999 V2000
   59.4210   80.2770   31.7580 C   0  0  0  0  0  0  0  0  0  0  0  0
   58.3130   79.8150   30.9610 N   0  0  0  0  0  0  0  0  0  0  0  0
   58.3780   79.8570   29.5820 C   0  0  0  0  0  0  0  0  0  0  0  0
   59.3730   80.2170   28.9650 O   0  0  0  0  0  0  0  0  0  0  0  0
   57.1380   79.4780   28.8480 C   0  0  0  0  0  0  0  0  0  0  0  0
   56.3100   78.4960   29.4050 C   0  0  0  0  0  0  0  0  0  0  0  0
   55.1350   78.1110   28.7540 C   0  0  0  0  0  0  0  0  0  0  0  0
   54.7640   78.7110   27.5430 C   0  0  0  0  0  0  0  0  0  0  0  0
   53.4920   78.2930   26.8400 C   0  0  0  0  0  0  0  0  0  0  0  0
   53.1050   79.1830   25.6760 C   0  0  0  0  0  0  0  0  0  0  0  0
   53.2870   78.7430   24.3560 C   0  0  0  0  0  0  0  0  0  0  0  0
   52.9340   79.5610   23.2820 C   0  0  0  0  0  0  0  0  0  0  0  0
   52.3880   80.8230   23.5280 C   0  0  0  0  0  0  0  0  0  0  0  0
   51.9510   81.8610   22.1580 S   0  0  0  0  0  0  0  0  0  0  0  0
   50.3530   81.4030   21.8890 N   0  0  0  0  0  0  0  0  0  0  0  0
   51.8900   83.2290   22.6180 O   0  0  0  0  0  0  0  0  0  0  0  0
   52.7290   81.4590   21.0120 O   0  0  0  0  0  0  0  0  0  0  0  0
   52.2070   81.2810   24.8340 C   0  0  0  0  0  0  0  0  0  0  0  0
   52.5600   80.4570   25.9040 C   0  0  0  0  0  0  0  0  0  0  0  0
   55.5920   79.7030   26.9950 C   0  0  0  0  0  0  0  0  0  0  0  0
   56.7680   80.0900   27.6450 C   0  0  0  0  0  0  0  0  0  0  0  0
   59.1735   80.1738   32.8248 H   0  0  0  0  0  0  0  0  0  0  0  0
   60.3133   79.6760   31.5288 H   0  0  0  0  0  0  0  0  0  0  0  0
   59.6220   81.3339   31.5288 H   0  0  0  0  0  0  0  0  0  0  0  0
   57.4050   79.7700   31.4010 H   0  0  0  0  0  0  0  0  0  0  0  0
   56.5858   78.0251   30.3601 H   0  0  0  0  0  0  0  0  0  0  0  0
   54.4966   77.3314   29.1952 H   0  0  0  0  0  0  0  0  0  0  0  0
   53.6274   77.2691   26.4614 H   0  0  0  0  0  0  0  0  0  0  0  0
   52.6817   78.3697   27.5800 H   0  0  0  0  0  0  0  0  0  0  0  0
   53.7111   77.7459   24.1665 H   0  0  0  0  0  0  0  0  0  0  0  0
   53.0846   79.2145   22.2489 H   0  0  0  0  0  0  0  0  0  0  0  0
   49.6870   81.9080   22.4740 H   0  0  0  0  0  0  0  0  0  0  0  0
   50.1440   81.5100   20.8960 H   0  0  0  0  0  0  0  0  0  0  0  0
   51.7900   82.2821   25.0184 H   0  0  0  0  0  0  0  0  0  0  0  0
   52.4099   80.8089   26.9353 H   0  0  0  0  0  0  0  0  0  0  0  0
   55.3129   80.1810   26.0444 H   0  0  0  0  0  0  0  0  0  0  0  0
   57.4029   80.8762   27.2104 H   0  0  0  0  0  0  0  0  0  0  0  0
  1  2  1  0
  2  3  1  0
  3  4  2  0
  3  5  1  0
  5  6  1  0
  6  7  2  0
  7  8  1  0
  8  9  1  0
  9 10  1  0
 10 11  1  0
 11 12  2  0
 12 13  1  0
 13 14  1  0
 14 15  1  0
 14 16  2  0
 14 17  2  0
 13 18  2  0
 18 19  1  0
  8 20  2  0
 20 21  1  0
 21  5  2  0
 19 10  2  0
  1 22  1  0
  1 23  1  0
  1 24  1  0
  2 25  1  0
  6 26  1  0
  7 27  1  0
  9 28  1  0
  9 29  1  0
 11 30  1  0
 12 31  1  0
 15 32  1  0
 15 33  1  0
 18 34  1  0
 19 35  1  0
 20 36  1  0
 21 37  1  0
M  END
>  <meeko>  (1) 
{"is_sidechain": false}

>  <smiles>  (1) 
CNC(=O)c1ccc(Cc2ccc(S(N)(=O)=O)cc2)cc1

>  <vina_score>  (1) 
-8.315

>  <job_id>  (1) 
af5a8ac7e90f5508

$$$$
