
     RDKit          3D

 43 45  0  0  0  0  0  0  0  0999 V2000
   59.2940   80.2320   31.4820 C   0  0  0  0  0  0  0  0  0  0  0  0
   59.2280   81.4480   32.4080 C   0  0  0  0  0  0  0  0  0  0  0  0
   57.8100   81.7280   32.8950 C   0  0  0  0  0  0  0  0  0  0  0  0
   60.2590   81.3830   33.5370 C   0  0  0  0  0  0  0  0  0  0  0  0
   60.7570   80.0900   33.8490 C   0  0  0  0  0  0  0  0  0  0  0  0
   61.6410   79.8570   34.8970 C   0  0  0  0  0  0  0  0  0  0  0  0
   62.0650   80.9020   35.7060 C   0  0  0  0  0  0  0  0  0  0  0  0
   61.5950   82.1840   35.4080 C   0  0  0  0  0  0  0  0  0  0  0  0
   61.8450   83.3630   36.0800 N   0  0  0  0  0  0  0  0  0  0  0  0
   61.1910   84.3970   35.4840 C   0  0  0  0  0  0  0  0  0  0  0  0
   61.2470   85.6140   36.0110 O   0  0  0  0  0  0  0  0  0  0  0  0
   60.5840   83.8930   34.3560 C   0  0  0  0  0  0  0  0  0  0  0  0
   59.8640   84.6650   33.4350 N   0  0  0  0  0  0  0  0  0  0  0  0
   60.3810   85.0930   32.3700 N   0  0  0  0  0  0  0  0  0  0  0  0
   61.6620   84.6660   31.9610 C   0  0  0  0  0  0  0  0  0  0  0  0
   61.8460   83.6020   31.0660 C   0  0  0  0  0  0  0  0  0  0  0  0
   63.1280   83.2240   30.6560 C   0  0  0  0  0  0  0  0  0  0  0  0
   64.2340   83.9370   31.1200 C   0  0  0  0  0  0  0  0  0  0  0  0
   65.8600   83.4460   30.6070 S   0  0  0  0  0  0  0  0  0  0  0  0
   66.7960   83.9820   31.9000 N   0  0  0  0  0  0  0  0  0  0  0  0
   65.9370   82.0040   30.6450 O   0  0  0  0  0  0  0  0  0  0  0  0
   66.2220   84.2150   29.4420 O   0  0  0  0  0  0  0  0  0  0  0  0
   64.0730   85.0140   31.9940 C   0  0  0  0  0  0  0  0  0  0  0  0
   62.7860   85.3810   32.3980 C   0  0  0  0  0  0  0  0  0  0  0  0
   60.7370   82.4690   34.3330 C   0  0  0  0  0  0  0  0  0  0  0  0
   59.3438   79.3138   32.0856 H   0  0  0  0  0  0  0  0  0  0  0  0
   58.3960   80.2053   30.8473 H   0  0  0  0  0  0  0  0  0  0  0  0
   60.1896   80.3026   30.8473 H   0  0  0  0  0  0  0  0  0  0  0  0
   59.5126   82.3221   31.8039 H   0  0  0  0  0  0  0  0  0  0  0  0
   57.7940   81.7312   33.9949 H   0  0  0  0  0  0  0  0  0  0  0  0
   57.4807   82.7085   32.5207 H   0  0  0  0  0  0  0  0  0  0  0  0
   57.1327   80.9463   32.5207 H   0  0  0  0  0  0  0  0  0  0  0  0
   60.4298   79.2372   33.2361 H   0  0  0  0  0  0  0  0  0  0  0  0
   62.0068   78.8370   35.0861 H   0  0  0  0  0  0  0  0  0  0  0  0
   62.7466   80.7274   36.5515 H   0  0  0  0  0  0  0  0  0  0  0  0
   62.4060   83.4500   36.9150 H   0  0  0  0  0  0  0  0  0  0  0  0
   60.4610   85.6910   36.5850 H   0  0  0  0  0  0  0  0  0  0  0  0
   60.9705   83.0580   30.6818 H   0  0  0  0  0  0  0  0  0  0  0  0
   63.2636   82.3720   29.9736 H   0  0  0  0  0  0  0  0  0  0  0  0
   66.3560   84.8100   32.3040 H   0  0  0  0  0  0  0  0  0  0  0  0
   67.7710   84.1490   31.6550 H   0  0  0  0  0  0  0  0  0  0  0  0
   64.9497   85.5679   32.3608 H   0  0  0  0  0  0  0  0  0  0  0  0
   62.6533   86.2430   33.0683 H   0  0  0  0  0  0  0  0  0  0  0  0
  1  2  1  0
  2  3  1  0
  2  4  1  0
  4  5  1  0
  5  6  2  0
  6  7  1  0
  7  8  2  0
  8  9  1  0
  9 10  1  0
 10 11  1  0
 10 12  2  0
 12 13  1  0
 13 14  2  3
 14 15  1  0
 15 16  1  0
 16 17  2  0
 17 18  1  0
 18 19  1  0
 19 20  1  0
 19 21  2  0
 19 22  2  0
 18 23  2  0
 23 24  1  0
 12 25  1  0
 25  4  2  0
 25  8  1  0
 24 15  2  0
  1 26  1  0
  1 27  1  0
  1 28  1  0
  2 29  1  0
  3 30  1  0
  3 31  1  0
  3 32  1  0
  5 33  1  0
  6 34  1  0
  7 35  1  0
  9 36  1  0
 11 37  1  0
 16 38  1  0
 17 39  1  0
 20 40  1  0
 20 41  1  0
 23 42  1  0
 24 43  1  0
M  END
>  <meeko>  (1) 
{"is_sidechain": false}

>  <smiles>  (1) 
CC(C)c1cccc2[nH]c(O)c(N=Nc3ccc(S(N)(=O)=O)cc3)c12

>  <vina_score>  (1) 
-5.283

>  <job_id>  (1) 
b03f9c2ed8d87df9

$$$$
