
     RDKit          3D

 39 41  0  0  0  0  0  0  0  0999 V2000
   61.9850   83.0630   32.8170 O   0  0  0  0  0  0  0  0  0  0  0  0
   61.8500   82.7740   31.6400 C   0  0  0  0  0  0  0  0  0  0  0  0
   62.8220   83.0860   30.7650 O   0  0  0  0  0  0  0  0  0  0  0  0
   60.7870   82.1360   31.0660 N   0  0  0  0  0  0  0  0  0  0  0  0
   60.7170   81.8260   29.6380 C   0  0  0  0  0  0  0  0  0  0  0  0
   59.2860   81.5340   29.1500 C   0  0  0  0  0  0  0  0  0  0  0  0
   58.6370   80.4890   29.9600 N   0  0  0  0  0  0  0  0  0  0  0  0
   57.5930   79.7280   29.4590 C   0  0  0  0  0  0  0  0  0  0  0  0
   57.1000   79.8990   28.1570 C   0  0  0  0  0  0  0  0  0  0  0  0
   56.0450   79.1260   27.6500 C   0  0  0  0  0  0  0  0  0  0  0  0
   55.4320   78.1380   28.4280 C   0  0  0  0  0  0  0  0  0  0  0  0
   54.3250   77.3240   27.8990 C   0  0  0  0  0  0  0  0  0  0  0  0
   53.9490   76.1210   28.5210 C   0  0  0  0  0  0  0  0  0  0  0  0
   52.8980   75.3490   28.0200 C   0  0  0  0  0  0  0  0  0  0  0  0
   52.2040   75.7650   26.8880 C   0  0  0  0  0  0  0  0  0  0  0  0
   52.5600   76.9540   26.2550 C   0  0  0  0  0  0  0  0  0  0  0  0
   53.6110   77.7260   26.7580 C   0  0  0  0  0  0  0  0  0  0  0  0
   55.9140   77.9540   29.7270 C   0  0  0  0  0  0  0  0  0  0  0  0
   56.9700   78.7320   30.2270 C   0  0  0  0  0  0  0  0  0  0  0  0
   59.0460   80.3750   31.3730 C   0  0  0  0  0  0  0  0  0  0  0  0
   59.6800   81.6760   31.8950 C   0  0  0  0  0  0  0  0  0  0  0  0
   62.3400   83.1070   29.9130 H   0  0  0  0  0  0  0  0  0  0  0  0
   61.1102   82.6847   29.0742 H   0  0  0  0  0  0  0  0  0  0  0  0
   61.3112   80.9154   29.4717 H   0  0  0  0  0  0  0  0  0  0  0  0
   58.6914   82.4571   29.2162 H   0  0  0  0  0  0  0  0  0  0  0  0
   59.3441   81.1763   28.1114 H   0  0  0  0  0  0  0  0  0  0  0  0
   57.5558   80.6647   27.5121 H   0  0  0  0  0  0  0  0  0  0  0  0
   55.6934   79.2998   26.6223 H   0  0  0  0  0  0  0  0  0  0  0  0
   54.4908   75.7821   29.4163 H   0  0  0  0  0  0  0  0  0  0  0  0
   52.6186   74.4106   28.5213 H   0  0  0  0  0  0  0  0  0  0  0  0
   51.3765   75.1568   26.4939 H   0  0  0  0  0  0  0  0  0  0  0  0
   52.0139   77.2852   25.3594 H   0  0  0  0  0  0  0  0  0  0  0  0
   53.8836   78.6639   26.2520 H   0  0  0  0  0  0  0  0  0  0  0  0
   55.4578   77.1860   30.3688 H   0  0  0  0  0  0  0  0  0  0  0  0
   57.3208   78.5553   31.2545 H   0  0  0  0  0  0  0  0  0  0  0  0
   58.1599   80.1423   31.9818 H   0  0  0  0  0  0  0  0  0  0  0  0
   59.7989   79.5764   31.4459 H   0  0  0  0  0  0  0  0  0  0  0  0
   58.9080   82.4593   31.9169 H   0  0  0  0  0  0  0  0  0  0  0  0
   60.0805   81.4703   32.8986 H   0  0  0  0  0  0  0  0  0  0  0  0
  1  2  2  0
  2  3  1  0
  2  4  1  0
  4  5  1  0
  5  6  1  0
  6  7  1  0
  7  8  1  0
  8  9  1  0
  9 10  2  0
 10 11  1  0
 11 12  1  0
 12 13  2  0
 13 14  1  0
 14 15  2  0
 15 16  1  0
 16 17  2  0
 11 18  2  0
 18 19  1  0
  7 20  1  0
 20 21  1  0
 21  4  1  0
 19  8  2  0
 17 12  1  0
  3 22  1  0
  5 23  1  0
  5 24  1  0
  6 25  1  0
  6 26  1  0
  9 27  1  0
 10 28  1  0
 13 29  1  0
 14 30  1  0
 15 31  1  0
 16 32  1  0
 17 33  1  0
 18 34  1  0
 19 35  1  0
 20 36  1  0
 20 37  1  0
 21 38  1  0
 21 39  1  0
M  END
>  <meeko>  (1) 
{"is_sidechain": false}

>  <smiles>  (1) 
O=C(O)N1CCN(c2ccc(-c3ccccc3)cc2)CC1

>  <vina_score>  (1) 
-7.070

>  <job_id>  (1) 
b09fab06a89fd090

$$$$
