
     RDKit          3D

 53 54  0  0  0  0  0  0  0  0999 V2000
   53.6840   78.5350   24.2710 C   0  0  0  0  0  0  0  0  0  0  0  0
   53.4860   79.9360   24.8370 C   0  0  1  0  0  0  0  0  0  0  0  0
   52.0880   80.2340   24.7910 O   0  0  0  0  0  0  0  0  0  0  0  0
   54.0330   80.0990   26.2730 C   0  0  1  0  0  0  0  0  0  0  0  0
   53.5510   81.4110   26.8940 C   0  0  0  0  0  0  0  0  0  0  0  0
   53.5130   79.0470   27.1080 O   0  0  0  0  0  0  0  0  0  0  0  0
   54.4310   78.3170   27.8310 C   0  0  0  0  0  0  0  0  0  0  0  0
   55.6480   78.8420   28.0700 N   0  0  0  0  0  0  0  0  0  0  0  0
   56.5260   78.0900   28.7490 C   0  0  0  0  0  0  0  0  0  0  0  0
   57.7640   78.6860   28.9680 N   0  0  0  0  0  0  0  0  0  0  0  0
   58.1880   79.8160   29.6760 C   0  0  0  0  0  0  0  0  0  0  0  0
   58.9280   80.8610   29.1100 C   0  0  0  0  0  0  0  0  0  0  0  0
   59.3240   81.9680   29.8690 C   0  0  0  0  0  0  0  0  0  0  0  0
   58.9730   82.0440   31.2160 C   0  0  0  0  0  0  0  0  0  0  0  0
   59.4780   83.4500   32.1920 S   0  0  0  0  0  0  0  0  0  0  0  0
   58.1860   83.9420   32.8950 N   0  0  0  0  0  0  0  0  0  0  0  0
   60.2900   84.2880   31.3320 O   0  0  0  0  0  0  0  0  0  0  0  0
   60.5510   82.7520   33.5280 C   0  0  0  0  0  0  0  0  0  0  0  0
   61.5390   81.7320   32.9660 C   0  0  0  0  0  0  0  0  0  0  0  0
   61.3130   83.9100   34.1850 C   0  0  0  0  0  0  0  0  0  0  0  0
   59.7860   82.1120   34.5780 O   0  0  0  0  0  0  0  0  0  0  0  0
   58.2440   81.0150   31.8100 C   0  0  0  0  0  0  0  0  0  0  0  0
   57.8560   79.9150   31.0390 C   0  0  0  0  0  0  0  0  0  0  0  0
   56.2380   76.8570   29.1840 N   0  0  0  0  0  0  0  0  0  0  0  0
   55.0140   76.3660   28.9130 C   0  0  0  0  0  0  0  0  0  0  0  0
   54.0540   77.0600   28.2240 C   0  0  0  0  0  0  0  0  0  0  0  0
   52.7160   76.4970   27.9340 C   0  0  0  0  0  0  0  0  0  0  0  0
   52.4450   76.4320   26.5980 F   0  0  0  0  0  0  0  0  0  0  0  0
   52.5590   75.2260   28.3950 F   0  0  0  0  0  0  0  0  0  0  0  0
   51.6990   77.2260   28.4720 F   0  0  0  0  0  0  0  0  0  0  0  0
   53.7855   77.8165   25.0977 H   0  0  0  0  0  0  0  0  0  0  0  0
   52.8154   78.2629   23.6534 H   0  0  0  0  0  0  0  0  0  0  0  0
   54.5940   78.5143   23.6534 H   0  0  0  0  0  0  0  0  0  0  0  0
   54.0626   80.6433   24.2229 H   0  0  0  0  0  0  0  0  0  0  0  0
   51.8820   80.4860   23.8720 H   0  0  0  0  0  0  0  0  0  0  0  0
   55.1311   80.0757   26.2128 H   0  0  0  0  0  0  0  0  0  0  0  0
   53.5807   81.3303   27.9906 H   0  0  0  0  0  0  0  0  0  0  0  0
   54.2059   82.2329   26.5690 H   0  0  0  0  0  0  0  0  0  0  0  0
   52.5198   81.6134   26.5690 H   0  0  0  0  0  0  0  0  0  0  0  0
   58.4780   78.1460   28.5020 H   0  0  0  0  0  0  0  0  0  0  0  0
   59.2040   80.8109   28.0464 H   0  0  0  0  0  0  0  0  0  0  0  0
   59.9099   82.7749   29.4046 H   0  0  0  0  0  0  0  0  0  0  0  0
   57.5240   84.3000   32.2020 H   0  0  0  0  0  0  0  0  0  0  0  0
   62.0417   81.2130   33.7954 H   0  0  0  0  0  0  0  0  0  0  0  0
   60.9983   80.9993   32.3489 H   0  0  0  0  0  0  0  0  0  0  0  0
   62.2886   82.2491   32.3489 H   0  0  0  0  0  0  0  0  0  0  0  0
   61.2510   83.8157   35.2792 H   0  0  0  0  0  0  0  0  0  0  0  0
   62.3675   83.8786   33.8735 H   0  0  0  0  0  0  0  0  0  0  0  0
   60.8669   84.8660   33.8735 H   0  0  0  0  0  0  0  0  0  0  0  0
   60.2070   82.4180   35.4090 H   0  0  0  0  0  0  0  0  0  0  0  0
   57.9764   81.0679   32.8756 H   0  0  0  0  0  0  0  0  0  0  0  0
   57.2768   79.1072   31.5101 H   0  0  0  0  0  0  0  0  0  0  0  0
   54.7712   75.3521   29.2639 H   0  0  0  0  0  0  0  0  0  0  0  0
  1  2  1  0
  2  3  1  0
  2  4  1  0
  4  5  1  0
  4  6  1  0
  6  7  1  0
  7  8  2  0
  8  9  1  0
  9 10  1  0
 10 11  1  0
 11 12  1  0
 12 13  2  0
 13 14  1  0
 14 15  1  0
 15 16  2  0
 15 17  2  0
 15 18  1  0
 18 19  1  0
 18 20  1  0
 18 21  1  0
 14 22  2  0
 22 23  1  0
  9 24  2  0
 24 25  1  0
 25 26  2  0
 26 27  1  0
 27 28  1  0
 27 29  1  0
 27 30  1  0
 26  7  1  0
 23 11  2  0
  1 31  1  0
  1 32  1  0
  1 33  1  0
  2 34  1  6
  3 35  1  0
  4 36  1  6
  5 37  1  0
  5 38  1  0
  5 39  1  0
 10 40  1  0
 12 41  1  0
 13 42  1  0
 16 43  1  0
 19 44  1  0
 19 45  1  0
 19 46  1  0
 20 47  1  0
 20 48  1  0
 20 49  1  0
 21 50  1  0
 22 51  1  0
 23 52  1  0
 25 53  1  0
M  END
>  <meeko>  (1) 
{"is_sidechain": false}

>  <smiles>  (1) 
C[C@@H](O)[C@@H](C)Oc1nc(Nc2ccc(S(=N)(=O)C(C)(C)O)cc2)ncc1C(F)(F)F

>  <vina_score>  (1) 
-8.385

>  <job_id>  (1) 
b0abf5e08a6655a3

$$$$
