
     RDKit          3D

 40 41  0  0  0  0  0  0  0  0999 V2000
   59.6870   81.3610   29.2660 C   0  0  0  0  0  0  0  0  0  0  0  0
   58.8770   80.0780   29.1550 C   0  0  0  0  0  0  0  0  0  0  0  0
   58.0770   80.0730   27.9440 N   0  0  0  0  0  0  0  0  0  0  0  0
   56.8370   79.4640   28.0210 C   0  0  0  0  0  0  0  0  0  0  0  0
   56.4820   78.7610   29.1090 N   0  0  0  0  0  0  0  0  0  0  0  0
   55.2430   78.2250   29.1200 C   0  0  0  0  0  0  0  0  0  0  0  0
   54.3630   78.3480   28.0790 C   0  0  0  0  0  0  0  0  0  0  0  0
   53.1450   77.7970   28.1270 F   0  0  0  0  0  0  0  0  0  0  0  0
   54.8260   79.0600   26.9950 C   0  0  0  0  0  0  0  0  0  0  0  0
   54.0060   79.3110   25.8250 C   0  0  0  0  0  0  0  0  0  0  0  0
   53.5400   78.3600   24.9420 C   0  0  0  0  0  0  0  0  0  0  0  0
   52.9330   78.9340   23.8730 N   0  0  0  0  0  0  0  0  0  0  0  0
   52.9980   80.2340   24.0740 C   0  0  0  0  0  0  0  0  0  0  0  0
   52.5590   81.2050   23.0390 C   0  0  0  0  0  0  0  0  0  0  0  0
   53.5300   80.5260   25.3320 N   0  0  0  0  0  0  0  0  0  0  0  0
   53.6090   81.8620   25.9780 C   0  0  0  0  0  0  0  0  0  0  0  0
   55.0190   82.4470   25.7720 C   0  0  0  0  0  0  0  0  0  0  0  0
   53.3150   81.8280   27.5010 C   0  0  0  0  0  0  0  0  0  0  0  0
   52.5610   82.8560   25.4140 C   0  0  0  0  0  0  0  0  0  0  0  0
   56.0510   79.6290   26.9500 N   0  0  0  0  0  0  0  0  0  0  0  0
   59.8418   81.6062   30.3271 H   0  0  0  0  0  0  0  0  0  0  0  0
   60.6619   81.2227   28.7756 H   0  0  0  0  0  0  0  0  0  0  0  0
   59.1430   82.1817   28.7756 H   0  0  0  0  0  0  0  0  0  0  0  0
   59.5639   79.2190   29.1363 H   0  0  0  0  0  0  0  0  0  0  0  0
   58.2027   80.0123   30.0216 H   0  0  0  0  0  0  0  0  0  0  0  0
   58.5300   79.6900   27.1220 H   0  0  0  0  0  0  0  0  0  0  0  0
   54.9250   77.6615   30.0096 H   0  0  0  0  0  0  0  0  0  0  0  0
   53.6467   77.2747   25.0859 H   0  0  0  0  0  0  0  0  0  0  0  0
   52.1530   82.1031   23.5275 H   0  0  0  0  0  0  0  0  0  0  0  0
   53.4179   81.4855   22.4116 H   0  0  0  0  0  0  0  0  0  0  0  0
   51.7811   80.7455   22.4116 H   0  0  0  0  0  0  0  0  0  0  0  0
   55.4827   82.6394   26.7507 H   0  0  0  0  0  0  0  0  0  0  0  0
   55.6348   81.7301   25.2091 H   0  0  0  0  0  0  0  0  0  0  0  0
   54.9464   83.3893   25.2091 H   0  0  0  0  0  0  0  0  0  0  0  0
   54.2568   81.9369   28.0588 H   0  0  0  0  0  0  0  0  0  0  0  0
   52.6367   82.6537   27.7620 H   0  0  0  0  0  0  0  0  0  0  0  0
   52.8430   80.8693   27.7620 H   0  0  0  0  0  0  0  0  0  0  0  0
   52.0395   83.3506   26.2467 H   0  0  0  0  0  0  0  0  0  0  0  0
   53.0681   83.6129   24.7976 H   0  0  0  0  0  0  0  0  0  0  0  0
   51.8320   82.3096   24.7976 H   0  0  0  0  0  0  0  0  0  0  0  0
  1  2  1  0
  2  3  1  0
  3  4  1  0
  4  5  2  0
  5  6  1  0
  6  7  2  0
  7  8  1  0
  7  9  1  0
  9 10  1  0
 10 11  2  0
 11 12  1  0
 12 13  2  0
 13 14  1  0
 13 15  1  0
 15 16  1  0
 16 17  1  0
 16 18  1  0
 16 19  1  0
  9 20  2  0
 20  4  1  0
 15 10  1  0
  1 21  1  0
  1 22  1  0
  1 23  1  0
  2 24  1  0
  2 25  1  0
  3 26  1  0
  6 27  1  0
 11 28  1  0
 14 29  1  0
 14 30  1  0
 14 31  1  0
 17 32  1  0
 17 33  1  0
 17 34  1  0
 18 35  1  0
 18 36  1  0
 18 37  1  0
 19 38  1  0
 19 39  1  0
 19 40  1  0
M  END
>  <meeko>  (1) 
{"is_sidechain": false}

>  <smiles>  (1) 
CCNc1ncc(F)c(-c2cnc(C)n2C(C)(C)C)n1

>  <vina_score>  (1) 
-7.076

>  <job_id>  (1) 
b10ccf12e538bd60

$$$$
