
     RDKit          3D

 40 42  0  0  0  0  0  0  0  0999 V2000
   61.6320   84.1000   31.0340 O   0  0  0  0  0  0  0  0  0  0  0  0
   62.1600   83.0170   30.8030 C   0  0  0  0  0  0  0  0  0  0  0  0
   61.4840   81.8160   30.6140 N   0  0  0  0  0  0  0  0  0  0  0  0
   60.0800   81.7900   30.7180 N   0  0  0  0  0  0  0  0  0  0  0  0
   59.6090   80.6020   31.4530 C   0  0  0  0  0  0  0  0  0  0  0  0
   58.1430   80.2320   31.1460 C   0  0  0  0  0  0  0  0  0  0  0  0
   57.9750   79.9390   29.7130 N   0  0  0  0  0  0  0  0  0  0  0  0
   56.9290   79.1610   29.2430 C   0  0  0  0  0  0  0  0  0  0  0  0
   56.2420   79.4700   28.0580 C   0  0  0  0  0  0  0  0  0  0  0  0
   55.1810   78.6850   27.5860 C   0  0  0  0  0  0  0  0  0  0  0  0
   54.7740   77.5640   28.2970 C   0  0  0  0  0  0  0  0  0  0  0  0
   55.4270   77.2320   29.4770 C   0  0  0  0  0  0  0  0  0  0  0  0
   56.4870   78.0230   29.9380 C   0  0  0  0  0  0  0  0  0  0  0  0
   58.8550   80.6700   28.7840 C   0  0  0  0  0  0  0  0  0  0  0  0
   59.4050   81.9660   29.4210 C   0  0  0  0  0  0  0  0  0  0  0  0
   63.6460   82.9210   30.7590 C   0  0  0  0  0  0  0  0  0  0  0  0
   64.3750   84.0600   30.3930 C   0  0  0  0  0  0  0  0  0  0  0  0
   65.7700   84.0150   30.3430 C   0  0  0  0  0  0  0  0  0  0  0  0
   66.4400   82.8300   30.6470 C   0  0  0  0  0  0  0  0  0  0  0  0
   65.7180   81.6870   30.9930 C   0  0  0  0  0  0  0  0  0  0  0  0
   64.3230   81.7280   31.0450 C   0  0  0  0  0  0  0  0  0  0  0  0
   61.9940   80.9410   30.6520 H   0  0  0  0  0  0  0  0  0  0  0  0
   60.2479   79.7486   31.1821 H   0  0  0  0  0  0  0  0  0  0  0  0
   59.6657   80.8404   32.5254 H   0  0  0  0  0  0  0  0  0  0  0  0
   57.8632   79.3444   31.7323 H   0  0  0  0  0  0  0  0  0  0  0  0
   57.4978   81.0818   31.4137 H   0  0  0  0  0  0  0  0  0  0  0  0
   56.5461   80.3563   27.4818 H   0  0  0  0  0  0  0  0  0  0  0  0
   54.6700   78.9575   26.6508 H   0  0  0  0  0  0  0  0  0  0  0  0
   53.9425   76.9449   27.9293 H   0  0  0  0  0  0  0  0  0  0  0  0
   55.1116   76.3474   30.0498 H   0  0  0  0  0  0  0  0  0  0  0  0
   56.9901   77.7438   30.8755 H   0  0  0  0  0  0  0  0  0  0  0  0
   59.6997   80.0217   28.5080 H   0  0  0  0  0  0  0  0  0  0  0  0
   58.2652   80.9462   27.8975 H   0  0  0  0  0  0  0  0  0  0  0  0
   60.1264   82.4103   28.7195 H   0  0  0  0  0  0  0  0  0  0  0  0
   58.5310   82.6048   29.6161 H   0  0  0  0  0  0  0  0  0  0  0  0
   63.8471   84.9925   30.1443 H   0  0  0  0  0  0  0  0  0  0  0  0
   66.3400   84.9135   30.0641 H   0  0  0  0  0  0  0  0  0  0  0  0
   67.5390   82.7964   30.6140 H   0  0  0  0  0  0  0  0  0  0  0  0
   66.2487   80.7519   31.2252 H   0  0  0  0  0  0  0  0  0  0  0  0
   63.7557   80.8237   31.3105 H   0  0  0  0  0  0  0  0  0  0  0  0
  1  2  2  0
  2  3  1  0
  3  4  1  0
  4  5  1  0
  5  6  1  0
  6  7  1  0
  7  8  1  0
  8  9  2  0
  9 10  1  0
 10 11  2  0
 11 12  1  0
 12 13  2  0
  7 14  1  0
 14 15  1  0
  2 16  1  0
 16 17  2  0
 17 18  1  0
 18 19  2  0
 19 20  1  0
 20 21  2  0
 15  4  1  0
 21 16  1  0
 13  8  1  0
  3 22  1  0
  5 23  1  0
  5 24  1  0
  6 25  1  0
  6 26  1  0
  9 27  1  0
 10 28  1  0
 11 29  1  0
 12 30  1  0
 13 31  1  0
 14 32  1  0
 14 33  1  0
 15 34  1  0
 15 35  1  0
 17 36  1  0
 18 37  1  0
 19 38  1  0
 20 39  1  0
 21 40  1  0
M  END
>  <meeko>  (1) 
{"is_sidechain": false}

>  <smiles>  (1) 
O=C(NN1CCN(c2ccccc2)CC1)c1ccccc1

>  <vina_score>  (1) 
-6.987

>  <job_id>  (1) 
b13f314ccf1914ee

$$$$
