
     RDKit          3D

 42 44  0  0  0  0  0  0  0  0999 V2000
   59.6840   81.4690   28.7700 C   0  0  0  0  0  0  0  0  0  0  0  0
   59.1090   81.3910   30.1570 C   0  0  0  0  0  0  0  0  0  0  0  0
   59.2230   82.5030   31.0080 C   0  0  0  0  0  0  0  0  0  0  0  0
   58.6810   82.4790   32.2930 C   0  0  0  0  0  0  0  0  0  0  0  0
   58.0090   81.3480   32.7430 C   0  0  0  0  0  0  0  0  0  0  0  0
   57.8810   80.2410   31.9070 C   0  0  0  0  0  0  0  0  0  0  0  0
   58.4300   80.2450   30.6160 C   0  0  0  0  0  0  0  0  0  0  0  0
   58.2290   79.1090   29.7980 N   0  0  0  0  0  0  0  0  0  0  0  0
   56.9730   78.7370   29.2720 C   0  0  0  0  0  0  0  0  0  0  0  0
   56.2360   77.7140   29.8190 C   0  0  0  0  0  0  0  0  0  0  0  0
   55.0430   77.4480   29.2050 C   0  0  0  0  0  0  0  0  0  0  0  0
   54.5970   78.1220   28.1310 N   0  0  0  0  0  0  0  0  0  0  0  0
   55.3750   79.1030   27.6440 C   0  0  0  0  0  0  0  0  0  0  0  0
   54.9480   79.7920   26.5320 N   0  0  0  0  0  0  0  0  0  0  0  0
   53.5400   79.6930   26.1540 C   0  0  0  0  0  0  0  0  0  0  0  0
   53.2870   80.4160   24.8110 C   0  0  0  0  0  0  0  0  0  0  0  0
   53.6990   81.8370   24.7640 N   0  0  0  0  0  0  0  0  0  0  0  0
   52.5600   82.7370   24.9260 C   0  0  0  0  0  0  0  0  0  0  0  0
   54.7420   82.1350   25.7710 C   0  0  0  0  0  0  0  0  0  0  0  0
   55.7000   80.9560   26.0630 C   0  0  0  0  0  0  0  0  0  0  0  0
   56.5580   79.4240   28.1930 N   0  0  0  0  0  0  0  0  0  0  0  0
   60.7723   81.6166   28.8320 H   0  0  0  0  0  0  0  0  0  0  0  0
   59.4709   80.5337   28.2316 H   0  0  0  0  0  0  0  0  0  0  0  0
   59.2295   82.3137   28.2316 H   0  0  0  0  0  0  0  0  0  0  0  0
   59.7465   83.4043   30.6564 H   0  0  0  0  0  0  0  0  0  0  0  0
   58.7852   83.3548   32.9503 H   0  0  0  0  0  0  0  0  0  0  0  0
   57.5799   81.3274   33.7556 H   0  0  0  0  0  0  0  0  0  0  0  0
   57.3419   79.3512   32.2642 H   0  0  0  0  0  0  0  0  0  0  0  0
   58.8370   79.1260   28.9810 H   0  0  0  0  0  0  0  0  0  0  0  0
   56.5832   77.1456   30.6944 H   0  0  0  0  0  0  0  0  0  0  0  0
   54.4161   76.6406   29.6113 H   0  0  0  0  0  0  0  0  0  0  0  0
   53.2666   78.6325   26.0511 H   0  0  0  0  0  0  0  0  0  0  0  0
   52.9281   80.1687   26.9346 H   0  0  0  0  0  0  0  0  0  0  0  0
   53.8391   79.8771   24.0269 H   0  0  0  0  0  0  0  0  0  0  0  0
   52.1964   80.4132   24.6676 H   0  0  0  0  0  0  0  0  0  0  0  0
   52.3643   82.8916   25.9974 H   0  0  0  0  0  0  0  0  0  0  0  0
   52.7858   83.7033   24.4513 H   0  0  0  0  0  0  0  0  0  0  0  0
   51.6721   82.2939   24.4513 H   0  0  0  0  0  0  0  0  0  0  0  0
   55.3404   82.9831   25.4067 H   0  0  0  0  0  0  0  0  0  0  0  0
   54.2173   82.3553   26.7124 H   0  0  0  0  0  0  0  0  0  0  0  0
   56.2404   80.6914   25.1421 H   0  0  0  0  0  0  0  0  0  0  0  0
   56.4117   81.2597   26.8448 H   0  0  0  0  0  0  0  0  0  0  0  0
  1  2  1  0
  2  3  2  0
  3  4  1  0
  4  5  2  0
  5  6  1  0
  6  7  2  0
  7  8  1  0
  8  9  1  0
  9 10  1  0
 10 11  2  0
 11 12  1  0
 12 13  2  0
 13 14  1  0
 14 15  1  0
 15 16  1  0
 16 17  1  0
 17 18  1  0
 17 19  1  0
 19 20  1  0
 13 21  1  0
  7  2  1  0
 21  9  2  0
 20 14  1  0
  1 22  1  0
  1 23  1  0
  1 24  1  0
  3 25  1  0
  4 26  1  0
  5 27  1  0
  6 28  1  0
  8 29  1  0
 10 30  1  0
 11 31  1  0
 15 32  1  0
 15 33  1  0
 16 34  1  0
 16 35  1  0
 18 36  1  0
 18 37  1  0
 18 38  1  0
 19 39  1  0
 19 40  1  0
 20 41  1  0
 20 42  1  0
M  END
>  <meeko>  (1) 
{"is_sidechain": false}

>  <smiles>  (1) 
Cc1ccccc1Nc1ccnc(N2CCN(C)CC2)n1

>  <vina_score>  (1) 
-7.284

>  <job_id>  (1) 
b19971b0e6c669ff

$$$$
