
     RDKit          3D

 40 41  0  0  0  0  0  0  0  0999 V2000
   60.8280   81.8350   34.7700 C   0  0  0  0  0  0  0  0  0  0  0  0
   59.9040   81.7760   33.6080 C   0  0  0  0  0  0  0  0  0  0  0  0
   58.7560   81.1270   33.6290 N   0  0  0  0  0  0  0  0  0  0  0  0
   58.1860   81.3160   32.4110 C   0  0  0  0  0  0  0  0  0  0  0  0
   59.0030   82.0680   31.5950 C   0  0  0  0  0  0  0  0  0  0  0  0
   58.7970   82.4690   30.1700 C   0  0  0  0  0  0  0  0  0  0  0  0
   58.9590   81.2720   29.2420 C   0  0  0  0  0  0  0  0  0  0  0  0
   60.0600   80.9830   28.7820 O   0  0  0  0  0  0  0  0  0  0  0  0
   57.7630   80.6330   28.9600 N   0  0  0  0  0  0  0  0  0  0  0  0
   57.6490   79.3710   28.4050 C   0  0  0  0  0  0  0  0  0  0  0  0
   58.5650   78.7550   27.8720 O   0  0  0  0  0  0  0  0  0  0  0  0
   56.2970   78.7380   28.4480 C   0  0  0  0  0  0  0  0  0  0  0  0
   56.0600   77.7280   29.3930 C   0  0  0  0  0  0  0  0  0  0  0  0
   54.8080   77.1090   29.4750 C   0  0  0  0  0  0  0  0  0  0  0  0
   53.7810   77.4940   28.6140 C   0  0  0  0  0  0  0  0  0  0  0  0
   54.0050   78.4940   27.6710 C   0  0  0  0  0  0  0  0  0  0  0  0
   55.2560   79.1060   27.5930 C   0  0  0  0  0  0  0  0  0  0  0  0
   55.4310   80.0620   26.6660 F   0  0  0  0  0  0  0  0  0  0  0  0
   60.0990   82.3880   32.3830 N   0  0  0  0  0  0  0  0  0  0  0  0
   61.2380   83.2070   31.9570 C   0  0  0  0  0  0  0  0  0  0  0  0
   62.2070   82.4830   31.0190 C   0  0  0  0  0  0  0  0  0  0  0  0
   60.8020   84.5590   31.3950 C   0  0  0  0  0  0  0  0  0  0  0  0
   60.2466   81.7979   35.7030 H   0  0  0  0  0  0  0  0  0  0  0  0
   61.5180   80.9791   34.7336 H   0  0  0  0  0  0  0  0  0  0  0  0
   61.4035   82.7717   34.7336 H   0  0  0  0  0  0  0  0  0  0  0  0
   57.2028   80.9213   32.1151 H   0  0  0  0  0  0  0  0  0  0  0  0
   57.7835   82.8805   30.0541 H   0  0  0  0  0  0  0  0  0  0  0  0
   59.5502   83.2254   29.9043 H   0  0  0  0  0  0  0  0  0  0  0  0
   56.9480   80.9940   29.4400 H   0  0  0  0  0  0  0  0  0  0  0  0
   56.8659   77.4202   30.0755 H   0  0  0  0  0  0  0  0  0  0  0  0
   54.6337   76.3180   30.2193 H   0  0  0  0  0  0  0  0  0  0  0  0
   52.7959   77.0089   28.6795 H   0  0  0  0  0  0  0  0  0  0  0  0
   53.1977   78.8004   26.9896 H   0  0  0  0  0  0  0  0  0  0  0  0
   61.8097   83.4023   32.8762 H   0  0  0  0  0  0  0  0  0  0  0  0
   62.9482   81.9292   31.6139 H   0  0  0  0  0  0  0  0  0  0  0  0
   61.6470   81.7803   30.3845 H   0  0  0  0  0  0  0  0  0  0  0  0
   62.7221   83.2193   30.3845 H   0  0  0  0  0  0  0  0  0  0  0  0
   60.5803   85.2466   32.2245 H   0  0  0  0  0  0  0  0  0  0  0  0
   61.6107   84.9776   30.7779 H   0  0  0  0  0  0  0  0  0  0  0  0
   59.9011   84.4263   30.7779 H   0  0  0  0  0  0  0  0  0  0  0  0
  1  2  1  0
  2  3  2  0
  3  4  1  0
  4  5  2  0
  5  6  1  0
  6  7  1  0
  7  8  2  0
  7  9  1  0
  9 10  1  0
 10 11  2  0
 10 12  1  0
 12 13  2  0
 13 14  1  0
 14 15  2  0
 15 16  1  0
 16 17  2  0
 17 18  1  0
  5 19  1  0
 19 20  1  0
 20 21  1  0
 20 22  1  0
 19  2  1  0
 17 12  1  0
  1 23  1  0
  1 24  1  0
  1 25  1  0
  4 26  1  0
  6 27  1  0
  6 28  1  0
  9 29  1  0
 13 30  1  0
 14 31  1  0
 15 32  1  0
 16 33  1  0
 20 34  1  0
 21 35  1  0
 21 36  1  0
 21 37  1  0
 22 38  1  0
 22 39  1  0
 22 40  1  0
M  END
>  <meeko>  (1) 
{"is_sidechain": false}

>  <smiles>  (1) 
Cc1ncc(CC(=O)NC(=O)c2ccccc2F)n1C(C)C

>  <vina_score>  (1) 
-7.367

>  <job_id>  (1) 
b1e5fdc26c374aab

$$$$
