
     RDKit          3D

 49 51  0  0  0  0  0  0  0  0999 V2000
   52.8980   81.7320   21.1590 C   0  0  0  0  0  0  0  0  0  0  0  0
   51.9000   82.0070   22.2850 C   0  0  0  0  0  0  0  0  0  0  0  0
   50.5460   81.3570   21.9950 C   0  0  0  0  0  0  0  0  0  0  0  0
   52.4460   81.5830   23.6340 C   0  0  0  0  0  0  0  0  0  0  0  0
   52.5600   82.4770   24.6950 C   0  0  0  0  0  0  0  0  0  0  0  0
   53.0720   82.0250   25.9080 C   0  0  0  0  0  0  0  0  0  0  0  0
   53.4650   80.6920   26.0440 C   0  0  0  0  0  0  0  0  0  0  0  0
   53.3150   79.8600   24.9380 C   0  0  0  0  0  0  0  0  0  0  0  0
   52.8210   80.2850   23.7490 N   0  0  0  0  0  0  0  0  0  0  0  0
   53.7550   78.4260   25.0080 C   0  0  0  0  0  0  0  0  0  0  0  0
   53.6880   77.9050   26.4370 C   0  0  0  0  0  0  0  0  0  0  0  0
   54.4150   78.7840   27.3540 N   0  0  0  0  0  0  0  0  0  0  0  0
   55.1080   78.3520   28.4840 C   0  0  0  0  0  0  0  0  0  0  0  0
   54.5140   77.8210   29.4250 O   0  0  0  0  0  0  0  0  0  0  0  0
   56.6250   78.5830   28.5400 C   0  0  2  0  0  0  0  0  0  0  0  0
   57.0600   79.1070   29.9260 C   0  0  0  0  0  0  0  0  0  0  0  0
   58.4340   79.7640   29.8560 C   0  0  0  0  0  0  0  0  0  0  0  0
   58.4010   81.0220   28.9740 C   0  0  1  0  0  0  0  0  0  0  0  0
   59.7270   81.2520   28.3950 N   0  0  0  0  0  0  0  0  0  0  0  0
   57.3330   80.9420   27.8730 C   0  0  0  0  0  0  0  0  0  0  0  0
   57.0900   79.5110   27.3970 C   0  0  0  0  0  0  0  0  0  0  0  0
   54.0020   80.1870   27.3550 C   0  0  0  0  0  0  0  0  0  0  0  0
   53.8733   81.4633   21.5910 H   0  0  0  0  0  0  0  0  0  0  0  0
   52.5306   80.9016   20.5381 H   0  0  0  0  0  0  0  0  0  0  0  0
   53.0078   82.6334   20.5381 H   0  0  0  0  0  0  0  0  0  0  0  0
   51.7431   83.0949   22.3290 H   0  0  0  0  0  0  0  0  0  0  0  0
   50.0442   81.1161   22.9438 H   0  0  0  0  0  0  0  0  0  0  0  0
   49.9214   82.0534   21.4163 H   0  0  0  0  0  0  0  0  0  0  0  0
   50.6988   80.4341   21.4163 H   0  0  0  0  0  0  0  0  0  0  0  0
   52.2499   83.5257   24.5765 H   0  0  0  0  0  0  0  0  0  0  0  0
   53.1668   82.7168   26.7580 H   0  0  0  0  0  0  0  0  0  0  0  0
   53.0971   77.8162   24.3714 H   0  0  0  0  0  0  0  0  0  0  0  0
   54.7962   78.3610   24.6592 H   0  0  0  0  0  0  0  0  0  0  0  0
   52.6350   77.8510   26.7505 H   0  0  0  0  0  0  0  0  0  0  0  0
   54.1525   76.9083   26.4672 H   0  0  0  0  0  0  0  0  0  0  0  0
   57.1224   77.6131   28.3918 H   0  0  0  0  0  0  0  0  0  0  0  0
   56.3254   79.8464   30.2777 H   0  0  0  0  0  0  0  0  0  0  0  0
   57.1138   78.2560   30.6209 H   0  0  0  0  0  0  0  0  0  0  0  0
   58.7500   80.0453   30.8714 H   0  0  0  0  0  0  0  0  0  0  0  0
   59.1423   79.0468   29.4156 H   0  0  0  0  0  0  0  0  0  0  0  0
   58.1255   81.8724   29.6151 H   0  0  0  0  0  0  0  0  0  0  0  0
   60.2250   81.9630   28.9290 H   0  0  0  0  0  0  0  0  0  0  0  0
   59.6280   81.6230   27.4500 H   0  0  0  0  0  0  0  0  0  0  0  0
   56.3894   81.3479   28.2666 H   0  0  0  0  0  0  0  0  0  0  0  0
   57.6956   81.5235   27.0126 H   0  0  0  0  0  0  0  0  0  0  0  0
   56.3157   79.5250   26.6158 H   0  0  0  0  0  0  0  0  0  0  0  0
   58.0428   79.1186   27.0121 H   0  0  0  0  0  0  0  0  0  0  0  0
   53.2174   80.3113   28.1158 H   0  0  0  0  0  0  0  0  0  0  0  0
   54.9085   80.7744   27.5628 H   0  0  0  0  0  0  0  0  0  0  0  0
  1  2  1  0
  2  3  1  0
  2  4  1  0
  4  5  2  0
  5  6  1  0
  6  7  2  0
  7  8  1  0
  8  9  2  0
  8 10  1  0
 10 11  1  0
 11 12  1  0
 12 13  1  0
 13 14  2  0
 13 15  1  0
 15 16  1  0
 16 17  1  0
 17 18  1  0
 18 19  1  0
 18 20  1  0
 20 21  1  0
 12 22  1  0
  9  4  1  0
 21 15  1  0
 22  7  1  0
  1 23  1  0
  1 24  1  0
  1 25  1  0
  2 26  1  0
  3 27  1  0
  3 28  1  0
  3 29  1  0
  5 30  1  0
  6 31  1  0
 10 32  1  0
 10 33  1  0
 11 34  1  0
 11 35  1  0
 15 36  1  1
 16 37  1  0
 16 38  1  0
 17 39  1  0
 17 40  1  0
 18 41  1  6
 19 42  1  0
 19 43  1  0
 20 44  1  0
 20 45  1  0
 21 46  1  0
 21 47  1  0
 22 48  1  0
 22 49  1  0
M  END
>  <meeko>  (1) 
{"is_sidechain": false}

>  <smiles>  (1) 
CC(C)c1ccc2c(n1)CCN(C(=O)[C@H]1CC[C@H](N)CC1)C2

>  <vina_score>  (1) 
-8.077

>  <job_id>  (1) 
b1eee5e09f20d2ea

$$$$
