
     RDKit          3D

 43 45  0  0  0  0  0  0  0  0999 V2000
   57.9940   81.4030   33.1820 C   0  0  0  0  0  0  0  0  0  0  0  0
   58.9720   80.6070   32.5270 O   0  0  0  0  0  0  0  0  0  0  0  0
   58.9080   80.5450   31.1620 C   0  0  0  0  0  0  0  0  0  0  0  0
   59.8220   81.1100   30.2700 C   0  0  0  0  0  0  0  0  0  0  0  0
   59.6340   80.9820   28.8900 C   0  0  0  0  0  0  0  0  0  0  0  0
   58.5380   80.2780   28.3950 C   0  0  0  0  0  0  0  0  0  0  0  0
   57.6380   79.6880   29.2850 C   0  0  0  0  0  0  0  0  0  0  0  0
   56.4710   78.9590   28.7370 C   0  0  0  0  0  0  0  0  0  0  0  0
   56.1340   77.9170   29.2910 O   0  0  0  0  0  0  0  0  0  0  0  0
   55.8060   79.4810   27.6320 N   0  0  0  0  0  0  0  0  0  0  0  0
   54.7100   78.7020   27.0560 C   0  0  0  0  0  0  0  0  0  0  0  0
   54.3940   79.0890   25.6000 C   0  0  0  0  0  0  0  0  0  0  0  0
   54.1410   80.5360   25.4550 N   0  0  0  0  0  0  0  0  0  0  0  0
   53.2980   81.0090   24.4610 C   0  0  0  0  0  0  0  0  0  0  0  0
   53.0000   82.3760   24.3210 C   0  0  0  0  0  0  0  0  0  0  0  0
   52.1530   82.8520   23.3140 C   0  0  0  0  0  0  0  0  0  0  0  0
   51.5860   81.9630   22.4150 C   0  0  0  0  0  0  0  0  0  0  0  0
   50.7680   82.4630   21.4480 O   0  0  0  0  0  0  0  0  0  0  0  0
   51.8550   80.6070   22.5110 C   0  0  0  0  0  0  0  0  0  0  0  0
   52.7040   80.1430   23.5260 C   0  0  0  0  0  0  0  0  0  0  0  0
   54.6490   81.4150   26.5200 C   0  0  0  0  0  0  0  0  0  0  0  0
   55.9460   80.8580   27.1400 C   0  0  0  0  0  0  0  0  0  0  0  0
   57.8100   79.8380   30.6640 C   0  0  0  0  0  0  0  0  0  0  0  0
   58.1124   81.3066   34.2714 H   0  0  0  0  0  0  0  0  0  0  0  0
   58.1232   82.4559   32.8908 H   0  0  0  0  0  0  0  0  0  0  0  0
   56.9893   81.0627   32.8908 H   0  0  0  0  0  0  0  0  0  0  0  0
   60.6944   81.6586   30.6548 H   0  0  0  0  0  0  0  0  0  0  0  0
   60.3531   81.4382   28.1937 H   0  0  0  0  0  0  0  0  0  0  0  0
   58.3827   80.1876   27.3098 H   0  0  0  0  0  0  0  0  0  0  0  0
   54.9851   77.6373   27.0834 H   0  0  0  0  0  0  0  0  0  0  0  0
   53.8102   78.9105   27.6534 H   0  0  0  0  0  0  0  0  0  0  0  0
   55.2490   78.8126   24.9655 H   0  0  0  0  0  0  0  0  0  0  0  0
   53.4831   78.5526   25.2959 H   0  0  0  0  0  0  0  0  0  0  0  0
   53.4466   83.0936   25.0250 H   0  0  0  0  0  0  0  0  0  0  0  0
   51.9381   83.9280   23.2363 H   0  0  0  0  0  0  0  0  0  0  0  0
   50.0610   82.9730   21.8760 H   0  0  0  0  0  0  0  0  0  0  0  0
   51.4063   79.9006   21.7971 H   0  0  0  0  0  0  0  0  0  0  0  0
   52.9124   79.0650   23.5930 H   0  0  0  0  0  0  0  0  0  0  0  0
   54.8535   82.4092   26.0960 H   0  0  0  0  0  0  0  0  0  0  0  0
   53.8866   81.4764   27.3106 H   0  0  0  0  0  0  0  0  0  0  0  0
   56.7360   80.8774   26.3748 H   0  0  0  0  0  0  0  0  0  0  0  0
   56.1936   81.4911   28.0048 H   0  0  0  0  0  0  0  0  0  0  0  0
   57.0794   79.3985   31.3590 H   0  0  0  0  0  0  0  0  0  0  0  0
  1  2  1  0
  2  3  1  0
  3  4  1  0
  4  5  2  0
  5  6  1  0
  6  7  2  0
  7  8  1  0
  8  9  2  0
  8 10  1  0
 10 11  1  0
 11 12  1  0
 12 13  1  0
 13 14  1  0
 14 15  1  0
 15 16  2  0
 16 17  1  0
 17 18  1  0
 17 19  2  0
 19 20  1  0
 13 21  1  0
 21 22  1  0
  7 23  1  0
 23  3  2  0
 22 10  1  0
 20 14  2  0
  1 24  1  0
  1 25  1  0
  1 26  1  0
  4 27  1  0
  5 28  1  0
  6 29  1  0
 11 30  1  0
 11 31  1  0
 12 32  1  0
 12 33  1  0
 15 34  1  0
 16 35  1  0
 18 36  1  0
 19 37  1  0
 20 38  1  0
 21 39  1  0
 21 40  1  0
 22 41  1  0
 22 42  1  0
 23 43  1  0
M  END
>  <meeko>  (1) 
{"is_sidechain": false}

>  <smiles>  (1) 
COc1cccc(C(=O)N2CCN(c3ccc(O)cc3)CC2)c1

>  <vina_score>  (1) 
-7.390

>  <job_id>  (1) 
b217b5301bdf2c9a

$$$$
