
     RDKit          3D

 34 35  0  0  0  0  0  0  0  0999 V2000
   56.6860   78.3510   30.2700 C   0  0  0  0  0  0  0  0  0  0  0  0
   57.1350   79.0540   29.2170 C   0  0  0  0  0  0  0  0  0  0  0  0
   58.5670   79.5080   29.1300 C   0  0  0  0  0  0  0  0  0  0  0  0
   56.2350   79.3930   28.0930 C   0  0  0  0  0  0  0  0  0  0  0  0
   55.0180   78.7210   27.9150 C   0  0  0  0  0  0  0  0  0  0  0  0
   54.1560   79.0510   26.8590 C   0  0  0  0  0  0  0  0  0  0  0  0
   54.4810   80.0690   25.9490 C   0  0  0  0  0  0  0  0  0  0  0  0
   53.5730   80.4130   24.8420 C   0  0  0  0  0  0  0  0  0  0  0  0
   53.1650   81.7430   24.6260 C   0  0  0  0  0  0  0  0  0  0  0  0
   52.3060   82.0760   23.5740 C   0  0  0  0  0  0  0  0  0  0  0  0
   51.8390   81.0720   22.7260 C   0  0  0  0  0  0  0  0  0  0  0  0
   50.7490   81.4750   21.3890 S   0  0  0  0  0  0  0  0  0  0  0  0
   49.2580   81.0100   22.0200 N   0  0  0  0  0  0  0  0  0  0  0  0
   51.0530   80.6090   20.2740 O   0  0  0  0  0  0  0  0  0  0  0  0
   50.6850   82.9120   21.2640 O   0  0  0  0  0  0  0  0  0  0  0  0
   52.2380   79.7460   22.9070 C   0  0  0  0  0  0  0  0  0  0  0  0
   53.0950   79.4240   23.9620 C   0  0  0  0  0  0  0  0  0  0  0  0
   55.6970   80.7370   26.1450 C   0  0  0  0  0  0  0  0  0  0  0  0
   56.0720   81.7150   25.3050 F   0  0  0  0  0  0  0  0  0  0  0  0
   56.5600   80.4140   27.1940 C   0  0  0  0  0  0  0  0  0  0  0  0
   55.6343   78.0309   30.3095 H   0  0  0  0  0  0  0  0  0  0  0  0
   57.3700   78.0955   31.0927 H   0  0  0  0  0  0  0  0  0  0  0  0
   58.9731   79.6367   30.1442 H   0  0  0  0  0  0  0  0  0  0  0  0
   59.1588   78.7534   28.5911 H   0  0  0  0  0  0  0  0  0  0  0  0
   58.6159   80.4657   28.5911 H   0  0  0  0  0  0  0  0  0  0  0  0
   54.7342   77.9215   28.6152 H   0  0  0  0  0  0  0  0  0  0  0  0
   53.2095   78.5029   26.7420 H   0  0  0  0  0  0  0  0  0  0  0  0
   53.5287   82.5349   25.2972 H   0  0  0  0  0  0  0  0  0  0  0  0
   52.0011   83.1211   23.4166 H   0  0  0  0  0  0  0  0  0  0  0  0
   49.2970   80.1350   22.5440 H   0  0  0  0  0  0  0  0  0  0  0  0
   48.8860   81.7760   22.5840 H   0  0  0  0  0  0  0  0  0  0  0  0
   51.8802   78.9613   22.2242 H   0  0  0  0  0  0  0  0  0  0  0  0
   53.4021   78.3778   24.1078 H   0  0  0  0  0  0  0  0  0  0  0  0
   57.5032   80.9670   27.3144 H   0  0  0  0  0  0  0  0  0  0  0  0
  1  2  2  0
  2  3  1  0
  2  4  1  0
  4  5  1  0
  5  6  2  0
  6  7  1  0
  7  8  1  0
  8  9  1  0
  9 10  2  0
 10 11  1  0
 11 12  1  0
 12 13  1  0
 12 14  2  0
 12 15  2  0
 11 16  2  0
 16 17  1  0
  7 18  2  0
 18 19  1  0
 18 20  1  0
 20  4  2  0
 17  8  2  0
  1 21  1  0
  1 22  1  0
  3 23  1  0
  3 24  1  0
  3 25  1  0
  5 26  1  0
  6 27  1  0
  9 28  1  0
 10 29  1  0
 13 30  1  0
 13 31  1  0
 16 32  1  0
 17 33  1  0
 20 34  1  0
M  END
>  <meeko>  (1) 
{"is_sidechain": false}

>  <smiles>  (1) 
C=C(C)c1ccc(-c2ccc(S(N)(=O)=O)cc2)c(F)c1

>  <vina_score>  (1) 
-8.183

>  <job_id>  (1) 
b233cede331dd0a5

$$$$
