
     RDKit          3D

 53 57  0  0  0  0  0  0  0  0999 V2000
   59.3570   80.6070   34.9350 C   0  0  0  0  0  0  0  0  0  0  0  0
   58.3130   80.9820   34.0470 O   0  0  0  0  0  0  0  0  0  0  0  0
   58.6460   81.1420   32.7280 C   0  0  0  0  0  0  0  0  0  0  0  0
   59.6190   82.0080   32.2300 C   0  0  0  0  0  0  0  0  0  0  0  0
   59.8800   82.0960   30.8570 C   0  0  0  0  0  0  0  0  0  0  0  0
   59.1330   81.2820   29.9980 C   0  0  0  0  0  0  0  0  0  0  0  0
   59.1720   81.1610   28.6290 N   0  0  0  0  0  0  0  0  0  0  0  0
   58.2670   80.2280   28.2010 C   0  0  0  0  0  0  0  0  0  0  0  0
   58.1850   79.9540   26.9050 O   0  0  0  0  0  0  0  0  0  0  0  0
   57.6060   79.7410   29.3130 C   0  0  0  0  0  0  0  0  0  0  0  0
   56.5670   78.7280   29.2500 C   0  0  0  0  0  0  0  0  0  0  0  0
   56.5350   77.7040   30.2020 C   0  0  0  0  0  0  0  0  0  0  0  0
   55.5510   76.7100   30.1670 C   0  0  0  0  0  0  0  0  0  0  0  0
   54.5970   76.7780   29.1450 C   0  0  0  0  0  0  0  0  0  0  0  0
   53.5290   75.9530   28.8680 N   0  0  0  0  0  0  0  0  0  0  0  0
   52.8490   76.3980   27.7670 C   0  0  0  0  0  0  0  0  0  0  0  0
   51.7830   75.7350   27.3370 O   0  0  0  0  0  0  0  0  0  0  0  0
   53.4900   77.5360   27.3240 C   0  0  0  0  0  0  0  0  0  0  0  0
   53.1690   78.3550   26.2300 N   0  0  0  0  0  0  0  0  0  0  0  0
   53.1870   79.5790   26.4810 N   0  0  0  0  0  0  0  0  0  0  0  0
   52.8600   80.3010   25.3210 C   0  0  0  0  0  0  0  0  0  0  0  0
   52.8690   79.6710   24.0690 C   0  0  0  0  0  0  0  0  0  0  0  0
   52.5660   80.3900   22.9100 C   0  0  0  0  0  0  0  0  0  0  0  0
   52.2520   81.7480   23.0080 C   0  0  0  0  0  0  0  0  0  0  0  0
   51.8730   82.6580   21.5330 S   0  0  0  0  0  0  0  0  0  0  0  0
   50.4940   81.8610   20.9890 N   0  0  0  0  0  0  0  0  0  0  0  0
   52.9290   82.4310   20.5760 O   0  0  0  0  0  0  0  0  0  0  0  0
   51.4350   83.9820   21.9120 O   0  0  0  0  0  0  0  0  0  0  0  0
   52.2620   82.3980   24.2450 C   0  0  0  0  0  0  0  0  0  0  0  0
   52.5670   81.6690   25.3980 C   0  0  0  0  0  0  0  0  0  0  0  0
   54.5950   77.7900   28.1800 C   0  0  0  0  0  0  0  0  0  0  0  0
   55.5970   78.7810   28.2370 C   0  0  0  0  0  0  0  0  0  0  0  0
   58.1560   80.3990   30.4590 C   0  0  0  0  0  0  0  0  0  0  0  0
   57.9110   80.3370   31.8460 C   0  0  0  0  0  0  0  0  0  0  0  0
   59.0164   80.7293   35.9738 H   0  0  0  0  0  0  0  0  0  0  0  0
   59.6278   79.5554   34.7593 H   0  0  0  0  0  0  0  0  0  0  0  0
   60.2350   81.2460   34.7593 H   0  0  0  0  0  0  0  0  0  0  0  0
   60.1926   82.6341   32.9292 H   0  0  0  0  0  0  0  0  0  0  0  0
   60.6464   82.7819   30.4668 H   0  0  0  0  0  0  0  0  0  0  0  0
   59.7880   81.6710   28.0150 H   0  0  0  0  0  0  0  0  0  0  0  0
   57.4890   80.5290   26.5360 H   0  0  0  0  0  0  0  0  0  0  0  0
   57.2983   77.6796   30.9937 H   0  0  0  0  0  0  0  0  0  0  0  0
   55.5279   75.9043   30.9155 H   0  0  0  0  0  0  0  0  0  0  0  0
   53.2710   75.1330   29.3980 H   0  0  0  0  0  0  0  0  0  0  0  0
   51.4250   75.2750   28.1230 H   0  0  0  0  0  0  0  0  0  0  0  0
   53.1167   78.6016   23.9983 H   0  0  0  0  0  0  0  0  0  0  0  0
   52.5746   79.8916   21.9294 H   0  0  0  0  0  0  0  0  0  0  0  0
   50.0250   82.3380   20.2200 H   0  0  0  0  0  0  0  0  0  0  0  0
   50.7410   80.8990   20.7480 H   0  0  0  0  0  0  0  0  0  0  0  0
   52.0323   83.4718   24.3107 H   0  0  0  0  0  0  0  0  0  0  0  0
   52.5771   82.1741   26.3751 H   0  0  0  0  0  0  0  0  0  0  0  0
   55.6181   79.5903   27.4923 H   0  0  0  0  0  0  0  0  0  0  0  0
   57.1413   79.6554   32.2372 H   0  0  0  0  0  0  0  0  0  0  0  0
  1  2  1  0
  2  3  1  0
  3  4  2  0
  4  5  1  0
  5  6  2  0
  6  7  1  0
  7  8  1  0
  8  9  1  0
  8 10  2  0
 10 11  1  0
 11 12  2  0
 12 13  1  0
 13 14  2  0
 14 15  1  0
 15 16  1  0
 16 17  1  0
 16 18  2  0
 18 19  1  0
 19 20  2  3
 20 21  1  0
 21 22  1  0
 22 23  2  0
 23 24  1  0
 24 25  1  0
 25 26  1  0
 25 27  2  0
 25 28  2  0
 24 29  2  0
 29 30  1  0
 18 31  1  0
 31 32  2  0
 10 33  1  0
 33 34  2  0
 34  3  1  0
 33  6  1  0
 32 11  1  0
 31 14  1  0
 30 21  2  0
  1 35  1  0
  1 36  1  0
  1 37  1  0
  4 38  1  0
  5 39  1  0
  7 40  1  0
  9 41  1  0
 12 42  1  0
 13 43  1  0
 15 44  1  0
 17 45  1  0
 22 46  1  0
 23 47  1  0
 26 48  1  0
 26 49  1  0
 29 50  1  0
 30 51  1  0
 32 52  1  0
 34 53  1  0
M  END
>  <meeko>  (1) 
{"is_sidechain": false}

>  <smiles>  (1) 
COc1ccc2[nH]c(O)c(-c3ccc4[nH]c(O)c(N=Nc5ccc(S(N)(=O)=O)cc5)c4c3)c2c1

>  <vina_score>  (1) 
-8.736

>  <job_id>  (1) 
b279ae833ec6b43a

$$$$
