
     RDKit          3D

 53 55  0  0  0  0  0  0  0  0999 V2000
   65.3340   82.7640   32.5210 C   0  0  0  0  0  0  0  0  0  0  0  0
   64.5790   84.0890   32.6920 C   0  0  0  0  0  0  0  0  0  0  0  0
   65.0770   84.8140   33.9480 C   0  0  0  0  0  0  0  0  0  0  0  0
   63.1250   83.8670   32.6190 N   0  0  0  0  0  0  0  0  0  0  0  0
   62.7460   82.4730   32.9150 C   0  0  0  0  0  0  0  0  0  0  0  0
   61.2120   82.2650   32.9140 C   0  0  0  0  0  0  0  0  0  0  0  0
   60.5220   82.7140   31.6860 N   0  0  0  0  0  0  0  0  0  0  0  0
   60.7850   81.8360   30.5330 C   0  0  0  0  0  0  0  0  0  0  0  0
   59.5790   81.0220   30.1100 C   0  0  0  0  0  0  0  0  0  0  0  0
   59.1760   80.9880   28.7690 C   0  0  0  0  0  0  0  0  0  0  0  0
   58.0710   80.2270   28.3760 C   0  0  0  0  0  0  0  0  0  0  0  0
   57.3400   79.4760   29.3090 C   0  0  0  0  0  0  0  0  0  0  0  0
   56.1740   78.6770   28.8950 C   0  0  0  0  0  0  0  0  0  0  0  0
   55.3360   79.1090   27.8520 C   0  0  0  0  0  0  0  0  0  0  0  0
   54.2280   78.3550   27.4550 C   0  0  0  0  0  0  0  0  0  0  0  0
   53.9430   77.1550   28.1090 C   0  0  0  0  0  0  0  0  0  0  0  0
   52.5620   76.1810   27.5880 S   0  0  0  0  0  0  0  0  0  0  0  0
   53.0460   74.6330   28.0190 N   0  0  0  0  0  0  0  0  0  0  0  0
   51.4220   76.4880   28.4200 O   0  0  0  0  0  0  0  0  0  0  0  0
   52.4920   76.1860   26.1450 O   0  0  0  0  0  0  0  0  0  0  0  0
   54.7660   76.6960   29.1380 C   0  0  0  0  0  0  0  0  0  0  0  0
   55.8710   77.4580   29.5290 C   0  0  0  0  0  0  0  0  0  0  0  0
   57.7530   79.5120   30.6510 C   0  0  0  0  0  0  0  0  0  0  0  0
   58.8580   80.2720   31.0480 C   0  0  0  0  0  0  0  0  0  0  0  0
   60.9430   84.1030   31.4030 C   0  0  0  0  0  0  0  0  0  0  0  0
   62.4750   84.3310   31.3820 C   0  0  0  0  0  0  0  0  0  0  0  0
   65.5716   82.3470   33.5108 H   0  0  0  0  0  0  0  0  0  0  0  0
   64.7054   82.0530   31.9648 H   0  0  0  0  0  0  0  0  0  0  0  0
   66.2661   82.9423   31.9648 H   0  0  0  0  0  0  0  0  0  0  0  0
   64.7949   84.7742   31.8590 H   0  0  0  0  0  0  0  0  0  0  0  0
   64.7151   84.2871   34.8432 H   0  0  0  0  0  0  0  0  0  0  0  0
   66.1769   84.8290   33.9509 H   0  0  0  0  0  0  0  0  0  0  0  0
   64.6963   85.8460   33.9509 H   0  0  0  0  0  0  0  0  0  0  0  0
   63.1919   81.8165   32.1533 H   0  0  0  0  0  0  0  0  0  0  0  0
   63.1163   82.2317   33.9223 H   0  0  0  0  0  0  0  0  0  0  0  0
   61.0131   81.1910   33.0440 H   0  0  0  0  0  0  0  0  0  0  0  0
   60.8170   82.8843   33.7328 H   0  0  0  0  0  0  0  0  0  0  0  0
   61.0997   82.4603   29.6838 H   0  0  0  0  0  0  0  0  0  0  0  0
   61.5667   81.1246   30.8378 H   0  0  0  0  0  0  0  0  0  0  0  0
   59.7344   81.5657   28.0177 H   0  0  0  0  0  0  0  0  0  0  0  0
   57.7697   80.2168   27.3181 H   0  0  0  0  0  0  0  0  0  0  0  0
   55.5562   80.0570   27.3394 H   0  0  0  0  0  0  0  0  0  0  0  0
   53.5854   78.7045   26.6334 H   0  0  0  0  0  0  0  0  0  0  0  0
   53.8830   74.6830   28.6010 H   0  0  0  0  0  0  0  0  0  0  0  0
   52.2690   74.1370   28.4550 H   0  0  0  0  0  0  0  0  0  0  0  0
   54.5469   75.7411   29.6382 H   0  0  0  0  0  0  0  0  0  0  0  0
   56.5142   77.0986   30.3458 H   0  0  0  0  0  0  0  0  0  0  0  0
   57.1976   78.9323   31.4030 H   0  0  0  0  0  0  0  0  0  0  0  0
   59.1632   80.2808   32.1048 H   0  0  0  0  0  0  0  0  0  0  0  0
   60.5421   84.3873   30.4189 H   0  0  0  0  0  0  0  0  0  0  0  0
   60.5520   84.7170   32.2277 H   0  0  0  0  0  0  0  0  0  0  0  0
   62.9029   83.7823   30.5301 H   0  0  0  0  0  0  0  0  0  0  0  0
   62.6535   85.4128   31.2929 H   0  0  0  0  0  0  0  0  0  0  0  0
  1  2  1  0
  2  3  1  0
  2  4  1  0
  4  5  1  0
  5  6  1  0
  6  7  1  0
  7  8  1  0
  8  9  1  0
  9 10  1  0
 10 11  2  0
 11 12  1  0
 12 13  1  0
 13 14  1  0
 14 15  2  0
 15 16  1  0
 16 17  1  0
 17 18  1  0
 17 19  2  0
 17 20  2  0
 16 21  2  0
 21 22  1  0
 12 23  2  0
 23 24  1  0
  7 25  1  0
 25 26  1  0
 26  4  1  0
 24  9  2  0
 22 13  2  0
  1 27  1  0
  1 28  1  0
  1 29  1  0
  2 30  1  0
  3 31  1  0
  3 32  1  0
  3 33  1  0
  5 34  1  0
  5 35  1  0
  6 36  1  0
  6 37  1  0
  8 38  1  0
  8 39  1  0
 10 40  1  0
 11 41  1  0
 14 42  1  0
 15 43  1  0
 18 44  1  0
 18 45  1  0
 21 46  1  0
 22 47  1  0
 23 48  1  0
 24 49  1  0
 25 50  1  0
 25 51  1  0
 26 52  1  0
 26 53  1  0
M  END
>  <meeko>  (1) 
{"is_sidechain": false}

>  <smiles>  (1) 
CC(C)N1CCN(Cc2ccc(-c3ccc(S(N)(=O)=O)cc3)cc2)CC1

>  <vina_score>  (1) 
-7.706

>  <job_id>  (1) 
b2ef09eeb381267f

$$$$
