
     RDKit          3D

 48 49  0  0  0  0  0  0  0  0999 V2000
   52.5590   75.5270   26.2580 C   0  0  0  0  0  0  0  0  0  0  0  0
   52.4490   75.7680   27.7650 C   0  0  0  0  0  0  0  0  0  0  0  0
   51.0860   76.3640   28.1240 C   0  0  0  0  0  0  0  0  0  0  0  0
   53.5870   76.6320   28.2780 C   0  0  0  0  0  0  0  0  0  0  0  0
   53.7210   77.9750   27.9090 C   0  0  0  0  0  0  0  0  0  0  0  0
   54.7810   78.7480   28.3950 C   0  0  0  0  0  0  0  0  0  0  0  0
   55.7340   78.1960   29.2580 C   0  0  0  0  0  0  0  0  0  0  0  0
   56.7660   79.0440   29.7070 N   0  0  0  0  0  0  0  0  0  0  0  0
   57.8970   79.4330   29.0120 C   0  0  0  0  0  0  0  0  0  0  0  0
   58.1810   79.1660   27.8510 O   0  0  0  0  0  0  0  0  0  0  0  0
   58.8270   80.3020   29.7840 C   0  0  0  0  0  0  0  0  0  0  0  0
   58.8180   80.2180   31.1800 C   0  0  0  0  0  0  0  0  0  0  0  0
   59.6860   81.0100   31.9340 C   0  0  0  0  0  0  0  0  0  0  0  0
   60.5600   81.9070   31.3020 C   0  0  0  0  0  0  0  0  0  0  0  0
   61.5070   82.7610   32.1170 C   0  0  0  0  0  0  0  0  0  0  0  0
   62.8890   82.1470   32.3310 C   0  0  0  0  0  0  0  0  0  0  0  0
   63.0990   81.3070   33.2080 O   0  0  0  0  0  0  0  0  0  0  0  0
   63.9020   82.5730   31.4680 N   0  0  0  0  0  0  0  0  0  0  0  0
   63.7760   83.6990   30.5550 C   0  0  0  0  0  0  0  0  0  0  0  0
   65.2580   82.1110   31.7250 C   0  0  0  0  0  0  0  0  0  0  0  0
   60.5490   81.9990   29.9020 C   0  0  0  0  0  0  0  0  0  0  0  0
   59.6850   81.2040   29.1450 C   0  0  0  0  0  0  0  0  0  0  0  0
   55.6030   76.8590   29.6310 C   0  0  0  0  0  0  0  0  0  0  0  0
   54.5420   76.0850   29.1450 C   0  0  0  0  0  0  0  0  0  0  0  0
   53.0095   74.5400   26.0764 H   0  0  0  0  0  0  0  0  0  0  0  0
   51.5562   75.5609   25.8071 H   0  0  0  0  0  0  0  0  0  0  0  0
   53.1904   76.3068   25.8071 H   0  0  0  0  0  0  0  0  0  0  0  0
   52.5332   74.7929   28.2670 H   0  0  0  0  0  0  0  0  0  0  0  0
   50.9823   76.4093   29.2182 H   0  0  0  0  0  0  0  0  0  0  0  0
   51.0078   77.3785   27.7059 H   0  0  0  0  0  0  0  0  0  0  0  0
   50.2881   75.7326   27.7059 H   0  0  0  0  0  0  0  0  0  0  0  0
   52.9846   78.4282   27.2291 H   0  0  0  0  0  0  0  0  0  0  0  0
   54.8663   79.8028   28.0949 H   0  0  0  0  0  0  0  0  0  0  0  0
   56.6210   79.4690   30.6140 H   0  0  0  0  0  0  0  0  0  0  0  0
   58.1263   79.5272   31.6844 H   0  0  0  0  0  0  0  0  0  0  0  0
   59.6845   80.9301   33.0311 H   0  0  0  0  0  0  0  0  0  0  0  0
   61.6349   83.7227   31.5986 H   0  0  0  0  0  0  0  0  0  0  0  0
   61.0539   82.8665   33.1138 H   0  0  0  0  0  0  0  0  0  0  0  0
   63.6719   84.6294   31.1325 H   0  0  0  0  0  0  0  0  0  0  0  0
   64.6730   83.7593   29.9212 H   0  0  0  0  0  0  0  0  0  0  0  0
   62.8879   83.5595   29.9212 H   0  0  0  0  0  0  0  0  0  0  0  0
   65.4263   82.0537   32.8105 H   0  0  0  0  0  0  0  0  0  0  0  0
   65.3966   81.1149   31.2794 H   0  0  0  0  0  0  0  0  0  0  0  0
   65.9760   82.8152   31.2794 H   0  0  0  0  0  0  0  0  0  0  0  0
   61.2263   82.7029   29.3963 H   0  0  0  0  0  0  0  0  0  0  0  0
   59.6792   81.2870   28.0481 H   0  0  0  0  0  0  0  0  0  0  0  0
   56.3393   76.4083   30.3128 H   0  0  0  0  0  0  0  0  0  0  0  0
   54.4570   75.0312   29.4487 H   0  0  0  0  0  0  0  0  0  0  0  0
  1  2  1  0
  2  3  1  0
  2  4  1  0
  4  5  1  0
  5  6  2  0
  6  7  1  0
  7  8  1  0
  8  9  1  0
  9 10  2  0
  9 11  1  0
 11 12  1  0
 12 13  2  0
 13 14  1  0
 14 15  1  0
 15 16  1  0
 16 17  2  0
 16 18  1  0
 18 19  1  0
 18 20  1  0
 14 21  2  0
 21 22  1  0
  7 23  2  0
 23 24  1  0
 24  4  2  0
 22 11  2  0
  1 25  1  0
  1 26  1  0
  1 27  1  0
  2 28  1  0
  3 29  1  0
  3 30  1  0
  3 31  1  0
  5 32  1  0
  6 33  1  0
  8 34  1  0
 12 35  1  0
 13 36  1  0
 15 37  1  0
 15 38  1  0
 19 39  1  0
 19 40  1  0
 19 41  1  0
 20 42  1  0
 20 43  1  0
 20 44  1  0
 21 45  1  0
 22 46  1  0
 23 47  1  0
 24 48  1  0
M  END
>  <meeko>  (1) 
{"is_sidechain": false}

>  <smiles>  (1) 
CC(C)c1ccc(NC(=O)c2ccc(CC(=O)N(C)C)cc2)cc1

>  <vina_score>  (1) 
-8.042

>  <job_id>  (1) 
b2f41ac574495a25

$$$$
