
     RDKit          3D

 54 57  0  0  0  0  0  0  0  0999 V2000
   55.7600   86.3790   26.8710 C   0  0  0  0  0  0  0  0  0  0  0  0
   55.4870   84.9750   26.5740 N   0  0  0  0  0  0  0  0  0  0  0  0
   54.2850   84.7690   26.1560 C   0  0  0  0  0  0  0  0  0  0  0  0
   53.8010   83.4210   25.7960 C   0  0  0  0  0  0  0  0  0  0  0  0
   53.0400   83.2230   24.6420 C   0  0  0  0  0  0  0  0  0  0  0  0
   52.5710   81.9510   24.3000 C   0  0  0  0  0  0  0  0  0  0  0  0
   52.8970   80.8900   25.1520 C   0  0  0  0  0  0  0  0  0  0  0  0
   52.5650   79.5540   25.0710 N   0  0  0  0  0  0  0  0  0  0  0  0
   53.0870   78.8630   26.1300 C   0  0  0  0  0  0  0  0  0  0  0  0
   52.8690   77.5600   26.2510 O   0  0  0  0  0  0  0  0  0  0  0  0
   53.7900   79.7660   26.8930 C   0  0  0  0  0  0  0  0  0  0  0  0
   54.4650   79.4280   28.0720 N   0  0  0  0  0  0  0  0  0  0  0  0
   55.3630   78.5820   27.8720 N   0  0  0  0  0  0  0  0  0  0  0  0
   56.0100   78.2250   29.0380 C   0  0  0  0  0  0  0  0  0  0  0  0
   55.7360   77.2680   29.7590 O   0  0  0  0  0  0  0  0  0  0  0  0
   57.1550   79.1110   29.4200 C   0  0  0  0  0  0  0  0  0  0  0  0
   57.9820   79.6290   28.4130 C   0  0  0  0  0  0  0  0  0  0  0  0
   59.0620   80.4560   28.7410 C   0  0  0  0  0  0  0  0  0  0  0  0
   59.3280   80.7880   30.0720 C   0  0  0  0  0  0  0  0  0  0  0  0
   60.4350   81.6000   30.3730 N   0  0  0  0  0  0  0  0  0  0  0  0
   60.6060   81.6670   31.6100 N   0  0  0  0  0  0  0  0  0  0  0  0
   61.7010   82.4990   31.9080 C   0  0  0  0  0  0  0  0  0  0  0  0
   62.5140   83.0330   30.8970 C   0  0  0  0  0  0  0  0  0  0  0  0
   63.6130   83.8350   31.2150 C   0  0  0  0  0  0  0  0  0  0  0  0
   63.9100   84.0890   32.5560 C   0  0  0  0  0  0  0  0  0  0  0  0
   65.2950   85.1150   32.9780 S   0  0  0  0  0  0  0  0  0  0  0  0
   66.3450   83.9950   33.6670 N   0  0  0  0  0  0  0  0  0  0  0  0
   65.9340   85.5470   31.7570 O   0  0  0  0  0  0  0  0  0  0  0  0
   64.8820   86.0360   34.0090 O   0  0  0  0  0  0  0  0  0  0  0  0
   63.1120   83.5650   33.5760 C   0  0  0  0  0  0  0  0  0  0  0  0
   62.0150   82.7640   33.2470 C   0  0  0  0  0  0  0  0  0  0  0  0
   58.5070   80.2600   31.0780 C   0  0  0  0  0  0  0  0  0  0  0  0
   57.4250   79.4300   30.7580 C   0  0  0  0  0  0  0  0  0  0  0  0
   53.6660   81.0560   26.3090 C   0  0  0  0  0  0  0  0  0  0  0  0
   54.1220   82.3500   26.6410 C   0  0  0  0  0  0  0  0  0  0  0  0
   55.7883   86.5244   27.9610 H   0  0  0  0  0  0  0  0  0  0  0  0
   56.7303   86.6635   26.4378 H   0  0  0  0  0  0  0  0  0  0  0  0
   54.9670   87.0063   26.4378 H   0  0  0  0  0  0  0  0  0  0  0  0
   53.5986   85.6237   26.0647 H   0  0  0  0  0  0  0  0  0  0  0  0
   52.8062   84.0798   23.9929 H   0  0  0  0  0  0  0  0  0  0  0  0
   51.9678   81.7902   23.3943 H   0  0  0  0  0  0  0  0  0  0  0  0
   52.0030   79.1330   24.3460 H   0  0  0  0  0  0  0  0  0  0  0  0
   51.9010   77.4370   26.2040 H   0  0  0  0  0  0  0  0  0  0  0  0
   57.7807   79.3839   27.3597 H   0  0  0  0  0  0  0  0  0  0  0  0
   59.7085   80.8490   27.9425 H   0  0  0  0  0  0  0  0  0  0  0  0
   62.2838   82.8180   29.8430 H   0  0  0  0  0  0  0  0  0  0  0  0
   64.2382   84.2622   30.4171 H   0  0  0  0  0  0  0  0  0  0  0  0
   67.1730   84.4160   34.0850 H   0  0  0  0  0  0  0  0  0  0  0  0
   65.8270   83.4240   34.3360 H   0  0  0  0  0  0  0  0  0  0  0  0
   63.3451   83.7810   34.6291 H   0  0  0  0  0  0  0  0  0  0  0  0
   61.3923   82.3376   34.0473 H   0  0  0  0  0  0  0  0  0  0  0  0
   58.7149   80.5003   32.1311 H   0  0  0  0  0  0  0  0  0  0  0  0
   56.7861   79.0278   31.5580 H   0  0  0  0  0  0  0  0  0  0  0  0
   54.7202   82.5152   27.5492 H   0  0  0  0  0  0  0  0  0  0  0  0
  1  2  1  0
  2  3  2  3
  3  4  1  0
  4  5  2  0
  5  6  1  0
  6  7  2  0
  7  8  1  0
  8  9  1  0
  9 10  1  0
  9 11  2  0
 11 12  1  0
 12 13  2  3
 13 14  1  0
 14 15  2  0
 14 16  1  0
 16 17  1  0
 17 18  2  0
 18 19  1  0
 19 20  1  0
 20 21  2  3
 21 22  1  0
 22 23  1  0
 23 24  2  0
 24 25  1  0
 25 26  1  0
 26 27  1  0
 26 28  2  0
 26 29  2  0
 25 30  2  0
 30 31  1  0
 19 32  2  0
 32 33  1  0
 11 34  1  0
 34 35  2  0
 35  4  1  0
 34  7  1  0
 33 16  2  0
 31 22  2  0
  1 36  1  0
  1 37  1  0
  1 38  1  0
  3 39  1  0
  5 40  1  0
  6 41  1  0
  8 42  1  0
 10 43  1  0
 17 44  1  0
 18 45  1  0
 23 46  1  0
 24 47  1  0
 27 48  1  0
 27 49  1  0
 30 50  1  0
 31 51  1  0
 32 52  1  0
 33 53  1  0
 35 54  1  0
M  END
>  <meeko>  (1) 
{"is_sidechain": false}

>  <smiles>  (1) 
CN=Cc1ccc2[nH]c(O)c(N=NC(=O)c3ccc(N=Nc4ccc(S(N)(=O)=O)cc4)cc3)c2c1

>  <vina_score>  (1) 
-8.234

>  <job_id>  (1) 
b3161ae9e14a71af

$$$$
