
     RDKit          3D

 79 83  0  0  0  0  0  0  0  0999 V2000
   61.0140   79.8960   35.6520 C   0  0  0  0  0  0  0  0  0  0  0  0
   60.4300   81.2660   35.3440 C   0  0  0  0  0  0  0  0  0  0  0  0
   59.8510   81.3420   33.9770 C   0  0  0  0  0  0  0  0  0  0  0  0
   58.5520   80.9820   33.5650 C   0  0  0  0  0  0  0  0  0  0  0  0
   58.3410   81.1670   32.2610 N   0  0  0  0  0  0  0  0  0  0  0  0
   59.5250   81.6750   31.8050 N   0  0  0  0  0  0  0  0  0  0  0  0
   59.8380   82.0330   30.4740 C   0  0  0  0  0  0  0  0  0  0  0  0
   58.8280   81.8710   29.5160 N   0  0  0  0  0  0  0  0  0  0  0  0
   58.9110   80.9570   28.3920 C   0  0  0  0  0  0  0  0  0  0  0  0
   57.6940   80.0660   28.3450 C   0  0  0  0  0  0  0  0  0  0  0  0
   57.4360   79.1110   29.3350 C   0  0  0  0  0  0  0  0  0  0  0  0
   56.2800   78.3360   29.2900 C   0  0  0  0  0  0  0  0  0  0  0  0
   55.3700   78.5300   28.2540 C   0  0  0  0  0  0  0  0  0  0  0  0
   55.5890   79.4760   27.2710 N   0  0  0  0  0  0  0  0  0  0  0  0
   54.7440   79.6600   26.3440 O   0  0  0  0  0  0  0  0  0  0  0  0
   56.7480   80.2350   27.3270 C   0  0  0  0  0  0  0  0  0  0  0  0
   61.0740   82.5010   30.2330 C   0  0  0  0  0  0  0  0  0  0  0  0
   62.0480   82.6310   31.3800 C   0  0  0  0  0  0  0  0  0  0  0  0
   63.3250   83.1480   31.1540 N   0  0  0  0  0  0  0  0  0  0  0  0
   64.4580   82.2280   31.0210 C   0  0  0  0  0  0  0  0  0  0  0  0
   65.1430   82.0420   32.3690 C   0  0  0  0  0  0  0  0  0  0  0  0
   65.3070   83.3660   33.1120 C   0  0  0  0  0  0  0  0  0  0  0  0
   65.0860   84.5700   32.1950 C   0  0  0  0  0  0  0  0  0  0  0  0
   63.6700   84.5420   31.5350 C   0  0  0  0  0  0  0  0  0  0  0  0
   63.4570   85.6180   30.5320 N   0  0  0  0  0  0  0  0  0  0  0  0
   64.6980   85.9930   29.8510 C   0  0  0  0  0  0  0  0  0  0  0  0
   64.3910   86.7490   28.5560 C   0  0  0  0  0  0  0  0  0  0  0  0
   63.2640   87.7660   28.6940 C   0  0  0  0  0  0  0  0  0  0  0  0
   62.9530   88.0690   30.1540 C   0  0  0  0  0  0  0  0  0  0  0  0
   62.7030   86.8000   31.0100 C   0  0  1  0  0  0  0  0  0  0  0  0
   61.1880   86.5070   31.1630 C   0  0  0  0  0  0  0  0  0  0  0  0
   60.5300   87.0990   32.4140 C   0  0  0  0  0  0  0  0  0  0  0  0
   59.1540   87.7160   32.1510 C   0  0  0  0  0  0  0  0  0  0  0  0
   57.7450   86.7220   32.7340 S   0  0  0  0  0  0  0  0  0  0  0  0
   58.3340   85.0740   32.2800 C   0  0  0  0  0  0  0  0  0  0  0  0
   57.3650   84.0960   32.6200 O   0  0  0  0  0  0  0  0  0  0  0  0
   61.7270   82.2550   32.5990 N   0  0  0  0  0  0  0  0  0  0  0  0
   60.4680   81.7820   32.8230 C   0  0  0  0  0  0  0  0  0  0  0  0
   61.0724   79.7589   36.7419 H   0  0  0  0  0  0  0  0  0  0  0  0
   60.3698   79.1169   35.2185 H   0  0  0  0  0  0  0  0  0  0  0  0
   62.0222   79.8213   35.2185 H   0  0  0  0  0  0  0  0  0  0  0  0
   59.6381   81.4848   36.0755 H   0  0  0  0  0  0  0  0  0  0  0  0
   61.2476   81.9995   35.4027 H   0  0  0  0  0  0  0  0  0  0  0  0
   57.7879   80.5875   34.2510 H   0  0  0  0  0  0  0  0  0  0  0  0
   57.9210   81.8170   29.9990 H   0  0  0  0  0  0  0  0  0  0  0  0
   58.9724   81.5357   27.4585 H   0  0  0  0  0  0  0  0  0  0  0  0
   59.8071   80.3298   28.5087 H   0  0  0  0  0  0  0  0  0  0  0  0
   58.1536   78.9712   30.1569 H   0  0  0  0  0  0  0  0  0  0  0  0
   56.0878   77.5788   30.0644 H   0  0  0  0  0  0  0  0  0  0  0  0
   54.4573   77.9171   28.2174 H   0  0  0  0  0  0  0  0  0  0  0  0
   56.9293   80.9915   26.5493 H   0  0  0  0  0  0  0  0  0  0  0  0
   61.3728   82.7859   29.2134 H   0  0  0  0  0  0  0  0  0  0  0  0
   64.0954   81.2543   30.6598 H   0  0  0  0  0  0  0  0  0  0  0  0
   65.1802   82.6477   30.3053 H   0  0  0  0  0  0  0  0  0  0  0  0
   64.5370   81.3613   32.9849 H   0  0  0  0  0  0  0  0  0  0  0  0
   66.1452   81.6265   32.1876 H   0  0  0  0  0  0  0  0  0  0  0  0
   64.5753   83.4056   33.9324 H   0  0  0  0  0  0  0  0  0  0  0  0
   66.3373   83.4152   33.4943 H   0  0  0  0  0  0  0  0  0  0  0  0
   65.1852   85.4918   32.7870 H   0  0  0  0  0  0  0  0  0  0  0  0
   65.8385   84.5331   31.3935 H   0  0  0  0  0  0  0  0  0  0  0  0
   62.9029   84.8259   32.2705 H   0  0  0  0  0  0  0  0  0  0  0  0
   65.2942   86.6374   30.5138 H   0  0  0  0  0  0  0  0  0  0  0  0
   65.2592   85.0794   29.6053 H   0  0  0  0  0  0  0  0  0  0  0  0
   65.3010   87.2796   28.2393 H   0  0  0  0  0  0  0  0  0  0  0  0
   64.0626   86.0027   27.8176 H   0  0  0  0  0  0  0  0  0  0  0  0
   63.5621   88.6984   28.1922 H   0  0  0  0  0  0  0  0  0  0  0  0
   62.3606   87.3408   28.2325 H   0  0  0  0  0  0  0  0  0  0  0  0
   63.8038   88.6173   30.5846 H   0  0  0  0  0  0  0  0  0  0  0  0
   62.0246   88.6587   30.1712 H   0  0  0  0  0  0  0  0  0  0  0  0
   63.0994   87.0180   32.0126 H   0  0  0  0  0  0  0  0  0  0  0  0
   60.6720   86.9158   30.2817 H   0  0  0  0  0  0  0  0  0  0  0  0
   61.0974   85.4150   31.2593 H   0  0  0  0  0  0  0  0  0  0  0  0
   60.4148   86.2973   33.1584 H   0  0  0  0  0  0  0  0  0  0  0  0
   61.1837   87.9095   32.7685 H   0  0  0  0  0  0  0  0  0  0  0  0
   59.1153   88.6927   32.6555 H   0  0  0  0  0  0  0  0  0  0  0  0
   59.0510   87.7864   31.0581 H   0  0  0  0  0  0  0  0  0  0  0  0
   58.5193   85.0403   31.1962 H   0  0  0  0  0  0  0  0  0  0  0  0
   59.2645   84.8623   32.8272 H   0  0  0  0  0  0  0  0  0  0  0  0
   57.1090   84.2600   33.5420 H   0  0  0  0  0  0  0  0  0  0  0  0
  1  2  1  0
  2  3  1  0
  3  4  1  0
  4  5  2  0
  5  6  1  0
  6  7  1  0
  7  8  1  0
  8  9  1  0
  9 10  1  0
 10 11  1  0
 11 12  2  0
 12 13  1  0
 13 14  2  0
 14 15  1  0
 14 16  1  0
  7 17  2  0
 17 18  1  0
 18 19  1  0
 19 20  1  0
 20 21  1  0
 21 22  1  0
 22 23  1  0
 23 24  1  0
 24 25  1  0
 25 26  1  0
 26 27  1  0
 27 28  1  0
 28 29  1  0
 29 30  1  0
 30 31  1  0
 31 32  1  0
 32 33  1  0
 33 34  1  0
 34 35  1  0
 35 36  1  0
 18 37  2  0
 37 38  1  0
 38  3  2  0
 38  6  1  0
 16 10  2  0
 24 19  1  0
 30 25  1  0
  1 39  1  0
  1 40  1  0
  1 41  1  0
  2 42  1  0
  2 43  1  0
  4 44  1  0
  8 45  1  0
  9 46  1  0
  9 47  1  0
 11 48  1  0
 12 49  1  0
 13 50  1  0
 16 51  1  0
 17 52  1  0
 20 53  1  0
 20 54  1  0
 21 55  1  0
 21 56  1  0
 22 57  1  0
 22 58  1  0
 23 59  1  0
 23 60  1  0
 24 61  1  0
 26 62  1  0
 26 63  1  0
 27 64  1  0
 27 65  1  0
 28 66  1  0
 28 67  1  0
 29 68  1  0
 29 69  1  0
 30 70  1  1
 31 71  1  0
 31 72  1  0
 32 73  1  0
 32 74  1  0
 33 75  1  0
 33 76  1  0
 35 77  1  0
 35 78  1  0
 36 79  1  0
M  CHG  2  14   1  15  -1
M  END
>  <meeko>  (1) 
{"is_sidechain": false}

>  <smiles>  (1) 
CCc1cnn2c(NCc3ccc[n+]([O-])c3)cc(N3CCCCC3N3CCCC[C@H]3CCCSCO)nc12

>  <vina_score>  (1) 
-6.349

>  <job_id>  (1) 
b3a09d077d59ae3b

$$$$
