
     RDKit          3D

 69 72  0  0  0  0  0  0  0  0999 V2000
   65.6580   85.1070   29.1580 C   0  0  0  0  0  0  0  0  0  0  0  0
   66.6100   84.8910   30.3260 C   0  0  0  0  0  0  0  0  0  0  0  0
   66.1430   83.7910   31.2910 C   0  0  0  0  0  0  0  0  0  0  0  0
   65.6480   82.5640   30.6360 N   0  0  0  0  0  0  0  0  0  0  0  0
   66.6620   81.5090   30.6450 C   0  0  0  0  0  0  0  0  0  0  0  0
   64.3520   82.1600   31.2110 C   0  0  1  0  0  0  0  0  0  0  0  0
   64.2860   82.1070   32.7470 C   0  0  0  0  0  0  0  0  0  0  0  0
   62.7950   81.9150   32.9980 C   0  0  0  0  0  0  0  0  0  0  0  0
   62.1470   82.6630   31.9350 N   0  0  0  0  0  0  0  0  0  0  0  0
   60.7700   82.7620   31.8860 C   0  0  0  0  0  0  0  0  0  0  0  0
   60.1370   83.6290   32.4820 O   0  0  0  0  0  0  0  0  0  0  0  0
   60.0230   81.7640   31.0900 C   0  0  0  0  0  0  0  0  0  0  0  0
   60.0370   81.7990   29.6960 C   0  0  0  0  0  0  0  0  0  0  0  0
   59.3120   80.8470   28.9730 C   0  0  0  0  0  0  0  0  0  0  0  0
   58.5510   79.8570   29.6200 C   0  0  0  0  0  0  0  0  0  0  0  0
   57.8620   78.9280   28.8350 N   0  0  0  0  0  0  0  0  0  0  0  0
   56.5290   78.5380   28.7400 C   0  0  0  0  0  0  0  0  0  0  0  0
   55.9420   77.7730   29.6700 N   0  0  0  0  0  0  0  0  0  0  0  0
   54.6550   77.4340   29.4760 C   0  0  0  0  0  0  0  0  0  0  0  0
   53.9270   77.8320   28.3870 C   0  0  0  0  0  0  0  0  0  0  0  0
   54.6020   78.6250   27.4900 C   0  0  0  0  0  0  0  0  0  0  0  0
   53.9670   79.1120   26.2730 C   0  0  0  0  0  0  0  0  0  0  0  0
   53.3420   78.3920   25.2730 C   0  0  0  0  0  0  0  0  0  0  0  0
   52.8930   79.2030   24.2760 N   0  0  0  0  0  0  0  0  0  0  0  0
   53.2310   80.4270   24.6230 C   0  0  0  0  0  0  0  0  0  0  0  0
   52.9520   81.6180   23.7800 C   0  0  0  0  0  0  0  0  0  0  0  0
   53.8550   80.4360   25.8600 N   0  0  0  0  0  0  0  0  0  0  0  0
   54.2980   81.6000   26.6310 C   0  0  0  0  0  0  0  0  0  0  0  0
   53.2020   82.6360   26.8960 C   0  0  0  0  0  0  0  0  0  0  0  0
   55.5490   82.2410   26.0300 C   0  0  0  0  0  0  0  0  0  0  0  0
   55.8920   78.9810   27.6450 N   0  0  0  0  0  0  0  0  0  0  0  0
   58.5380   79.8560   31.0200 C   0  0  0  0  0  0  0  0  0  0  0  0
   59.2580   80.8070   31.7540 C   0  0  0  0  0  0  0  0  0  0  0  0
   63.0920   82.9840   30.8680 C   0  0  0  0  0  0  0  0  0  0  0  0
   64.6527   85.3351   29.5417 H   0  0  0  0  0  0  0  0  0  0  0  0
   66.0154   85.9469   28.5441 H   0  0  0  0  0  0  0  0  0  0  0  0
   65.6180   84.1951   28.5441 H   0  0  0  0  0  0  0  0  0  0  0  0
   67.5957   84.6104   29.9265 H   0  0  0  0  0  0  0  0  0  0  0  0
   66.6478   85.8314   30.8955 H   0  0  0  0  0  0  0  0  0  0  0  0
   66.9919   83.5170   31.9346 H   0  0  0  0  0  0  0  0  0  0  0  0
   65.2928   84.2090   31.8499 H   0  0  0  0  0  0  0  0  0  0  0  0
   66.9117   81.2493   31.6843 H   0  0  0  0  0  0  0  0  0  0  0  0
   66.2708   80.6200   30.1287 H   0  0  0  0  0  0  0  0  0  0  0  0
   67.5658   81.8647   30.1287 H   0  0  0  0  0  0  0  0  0  0  0  0
   64.3263   81.1763   30.7195 H   0  0  0  0  0  0  0  0  0  0  0  0
   64.8692   81.2623   33.1425 H   0  0  0  0  0  0  0  0  0  0  0  0
   64.7057   82.9972   33.2383 H   0  0  0  0  0  0  0  0  0  0  0  0
   62.5257   80.8499   32.9436 H   0  0  0  0  0  0  0  0  0  0  0  0
   62.4915   82.2607   33.9972 H   0  0  0  0  0  0  0  0  0  0  0  0
   60.6154   82.5715   29.1681 H   0  0  0  0  0  0  0  0  0  0  0  0
   59.3374   80.8729   27.8736 H   0  0  0  0  0  0  0  0  0  0  0  0
   58.4030   78.3950   28.1710 H   0  0  0  0  0  0  0  0  0  0  0  0
   54.1619   76.8045   30.2313 H   0  0  0  0  0  0  0  0  0  0  0  0
   52.8771   77.5382   28.2404 H   0  0  0  0  0  0  0  0  0  0  0  0
   53.2220   77.2986   25.2814 H   0  0  0  0  0  0  0  0  0  0  0  0
   52.7489   82.4849   24.4259 H   0  0  0  0  0  0  0  0  0  0  0  0
   53.8247   81.8303   23.1450 H   0  0  0  0  0  0  0  0  0  0  0  0
   52.0758   81.4206   23.1450 H   0  0  0  0  0  0  0  0  0  0  0  0
   54.5631   81.2005   27.6210 H   0  0  0  0  0  0  0  0  0  0  0  0
   53.0700   82.7608   27.9809 H   0  0  0  0  0  0  0  0  0  0  0  0
   53.4913   83.5984   26.4487 H   0  0  0  0  0  0  0  0  0  0  0  0
   52.2574   82.2930   26.4487 H   0  0  0  0  0  0  0  0  0  0  0  0
   56.2119   82.5807   26.8394 H   0  0  0  0  0  0  0  0  0  0  0  0
   56.0772   81.5025   25.4091 H   0  0  0  0  0  0  0  0  0  0  0  0
   55.2581   83.1011   25.4091 H   0  0  0  0  0  0  0  0  0  0  0  0
   57.9512   79.0938   31.5536 H   0  0  0  0  0  0  0  0  0  0  0  0
   59.2197   80.7985   32.8533 H   0  0  0  0  0  0  0  0  0  0  0  0
   62.6883   82.6884   29.8884 H   0  0  0  0  0  0  0  0  0  0  0  0
   63.3007   84.0621   30.8027 H   0  0  0  0  0  0  0  0  0  0  0  0
  1  2  1  0
  2  3  1  0
  3  4  1  0
  4  5  1  0
  4  6  1  0
  6  7  1  0
  7  8  1  0
  8  9  1  0
  9 10  1  0
 10 11  2  0
 10 12  1  0
 12 13  1  0
 13 14  2  0
 14 15  1  0
 15 16  1  0
 16 17  1  0
 17 18  2  0
 18 19  1  0
 19 20  2  0
 20 21  1  0
 21 22  1  0
 22 23  2  0
 23 24  1  0
 24 25  2  0
 25 26  1  0
 25 27  1  0
 27 28  1  0
 28 29  1  0
 28 30  1  0
 21 31  2  0
 15 32  2  0
 32 33  1  0
  9 34  1  0
 34  6  1  0
 33 12  2  0
 31 17  1  0
 27 22  1  0
  1 35  1  0
  1 36  1  0
  1 37  1  0
  2 38  1  0
  2 39  1  0
  3 40  1  0
  3 41  1  0
  5 42  1  0
  5 43  1  0
  5 44  1  0
  6 45  1  6
  7 46  1  0
  7 47  1  0
  8 48  1  0
  8 49  1  0
 13 50  1  0
 14 51  1  0
 16 52  1  0
 19 53  1  0
 20 54  1  0
 23 55  1  0
 26 56  1  0
 26 57  1  0
 26 58  1  0
 28 59  1  0
 29 60  1  0
 29 61  1  0
 29 62  1  0
 30 63  1  0
 30 64  1  0
 30 65  1  0
 32 66  1  0
 33 67  1  0
 34 68  1  0
 34 69  1  0
M  END
>  <meeko>  (1) 
{"is_sidechain": false}

>  <smiles>  (1) 
CCCN(C)[C@H]1CCN(C(=O)c2ccc(Nc3nccc(-c4cnc(C)n4C(C)C)n3)cc2)C1

>  <vina_score>  (1) 
-8.966

>  <job_id>  (1) 
b3cac7c7e9334dca

$$$$
