
     RDKit          3D

 41 43  0  0  0  0  0  0  0  0999 V2000
   64.2110   81.9210   30.6460 O   0  0  0  0  0  0  0  0  0  0  0  0
   63.8000   83.0790   30.7100 C   0  0  0  0  0  0  0  0  0  0  0  0
   62.5410   83.4680   31.1330 N   0  0  0  0  0  0  0  0  0  0  0  0
   61.5250   82.6320   31.5590 C   0  0  0  0  0  0  0  0  0  0  0  0
   61.4160   82.5380   32.8890 N   0  0  0  0  0  0  0  0  0  0  0  0
   60.4410   81.7370   33.3550 C   0  0  0  0  0  0  0  0  0  0  0  0
   59.5820   81.0360   32.5440 C   0  0  0  0  0  0  0  0  0  0  0  0
   59.7720   81.1960   31.1880 C   0  0  0  0  0  0  0  0  0  0  0  0
   58.9610   80.5370   30.1480 C   0  0  0  0  0  0  0  0  0  0  0  0
   59.0980   80.6450   28.7730 C   0  0  0  0  0  0  0  0  0  0  0  0
   58.1460   79.8720   28.0500 C   0  0  0  0  0  0  0  0  0  0  0  0
   57.2930   79.1800   28.8840 C   0  0  0  0  0  0  0  0  0  0  0  0
   56.1550   78.2530   28.5220 C   0  0  2  0  0  0  0  0  0  0  0  0
   54.9960   79.0300   27.8630 C   0  0  0  0  0  0  0  0  0  0  0  0
   53.6420   78.3220   27.9790 C   0  0  0  0  0  0  0  0  0  0  0  0
   53.8010   76.8140   28.0940 C   0  0  0  0  0  0  0  0  0  0  0  0
   54.5920   76.4290   29.3480 C   0  0  1  0  0  0  0  0  0  0  0  0
   55.1840   75.1490   29.1450 O   0  0  0  0  0  0  0  0  0  0  0  0
   55.6680   77.4520   29.7380 C   0  0  0  0  0  0  0  0  0  0  0  0
   57.6630   79.4790   30.5300 S   0  0  0  0  0  0  0  0  0  0  0  0
   60.7410   81.9930   30.6930 N   0  0  0  0  0  0  0  0  0  0  0  0
   64.6730   84.2790   30.3100 C   0  0  0  0  0  0  0  0  0  0  0  0
   65.9770   83.9420   30.1170 F   0  0  0  0  0  0  0  0  0  0  0  0
   64.2520   84.8440   29.1370 F   0  0  0  0  0  0  0  0  0  0  0  0
   64.6550   85.2760   31.2350 F   0  0  0  0  0  0  0  0  0  0  0  0
   62.2920   84.4480   31.1510 H   0  0  0  0  0  0  0  0  0  0  0  0
   60.3253   81.6379   34.4444 H   0  0  0  0  0  0  0  0  0  0  0  0
   58.7921   80.3877   32.9510 H   0  0  0  0  0  0  0  0  0  0  0  0
   59.8659   81.2661   28.2887 H   0  0  0  0  0  0  0  0  0  0  0  0
   58.0964   79.8313   26.9519 H   0  0  0  0  0  0  0  0  0  0  0  0
   56.5385   77.5297   27.7873 H   0  0  0  0  0  0  0  0  0  0  0  0
   54.9169   80.0144   28.3474 H   0  0  0  0  0  0  0  0  0  0  0  0
   55.2285   79.1103   26.7909 H   0  0  0  0  0  0  0  0  0  0  0  0
   53.1211   78.6943   28.8734 H   0  0  0  0  0  0  0  0  0  0  0  0
   53.0650   78.5363   27.0673 H   0  0  0  0  0  0  0  0  0  0  0  0
   52.8040   76.3519   28.1439 H   0  0  0  0  0  0  0  0  0  0  0  0
   54.3537   76.4562   27.2128 H   0  0  0  0  0  0  0  0  0  0  0  0
   53.8804   76.4060   30.1865 H   0  0  0  0  0  0  0  0  0  0  0  0
   56.1440   75.2290   29.2820 H   0  0  0  0  0  0  0  0  0  0  0  0
   55.2469   78.1481   30.4784 H   0  0  0  0  0  0  0  0  0  0  0  0
   56.5264   76.9055   30.1557 H   0  0  0  0  0  0  0  0  0  0  0  0
  1  2  2  0
  2  3  1  0
  3  4  1  0
  4  5  2  0
  5  6  1  0
  6  7  2  0
  7  8  1  0
  8  9  1  0
  9 10  2  0
 10 11  1  0
 11 12  2  0
 12 13  1  0
 13 14  1  0
 14 15  1  0
 15 16  1  0
 16 17  1  0
 17 18  1  0
 17 19  1  0
 12 20  1  0
  8 21  2  0
  2 22  1  0
 22 23  1  0
 22 24  1  0
 22 25  1  0
 21  4  1  0
 20  9  1  0
 19 13  1  0
  3 26  1  0
  6 27  1  0
  7 28  1  0
 10 29  1  0
 11 30  1  0
 13 31  1  6
 14 32  1  0
 14 33  1  0
 15 34  1  0
 15 35  1  0
 16 36  1  0
 16 37  1  0
 17 38  1  1
 18 39  1  0
 19 40  1  0
 19 41  1  0
M  END
>  <meeko>  (1) 
{"is_sidechain": false}

>  <smiles>  (1) 
O=C(Nc1nccc(-c2ccc([C@@H]3CCC[C@@H](O)C3)s2)n1)C(F)(F)F

>  <vina_score>  (1) 
-7.815

>  <job_id>  (1) 
b3f75398620b07a7

$$$$
