
     RDKit          3D

 64 67  0  0  0  0  0  0  0  0999 V2000
   65.5790   85.5030   27.6470 C   0  0  0  0  0  0  0  0  0  0  0  0
   65.4680   84.7450   28.8880 N   0  0  0  0  0  0  0  0  0  0  0  0
   64.6160   85.4390   29.8690 C   0  0  0  0  0  0  0  0  0  0  0  0
   64.8610   85.0080   31.3400 C   0  0  0  0  0  0  0  0  0  0  0  0
   65.4230   83.6480   31.5280 N   0  0  0  0  0  0  0  0  0  0  0  0
   64.4360   82.6210   31.1030 C   0  0  0  0  0  0  0  0  0  0  0  0
   64.0180   81.7040   32.2590 C   0  0  0  0  0  0  0  0  0  0  0  0
   62.5820   81.9280   32.6890 C   0  0  0  0  0  0  0  0  0  0  0  0
   62.0480   81.2480   33.5530 O   0  0  0  0  0  0  0  0  0  0  0  0
   61.9560   83.0110   32.0590 N   0  0  0  0  0  0  0  0  0  0  0  0
   60.3400   83.3560   32.1600 S   0  0  0  0  0  0  0  0  0  0  0  0
   60.0650   84.5690   31.4240 O   0  0  0  0  0  0  0  0  0  0  0  0
   59.8950   83.1530   33.5210 O   0  0  0  0  0  0  0  0  0  0  0  0
   59.6850   82.0040   31.1980 C   0  0  0  0  0  0  0  0  0  0  0  0
   59.0100   80.9660   31.8380 C   0  0  0  0  0  0  0  0  0  0  0  0
   58.4730   79.9200   31.0800 C   0  0  0  0  0  0  0  0  0  0  0  0
   58.6030   79.8900   29.6840 C   0  0  0  0  0  0  0  0  0  0  0  0
   58.0930   78.8600   28.8740 N   0  0  0  0  0  0  0  0  0  0  0  0
   56.8650   78.3320   28.7190 C   0  0  0  0  0  0  0  0  0  0  0  0
   56.4780   77.1710   29.3230 N   0  0  0  0  0  0  0  0  0  0  0  0
   55.2630   76.9730   28.8860 C   0  0  0  0  0  0  0  0  0  0  0  0
   54.5170   75.8710   29.1480 N   0  0  0  0  0  0  0  0  0  0  0  0
   54.8790   78.0470   28.0930 N   0  0  0  0  0  0  0  0  0  0  0  0
   53.6370   78.3390   27.5070 C   0  0  0  0  0  0  0  0  0  0  0  0
   52.6300   77.7480   27.8980 O   0  0  0  0  0  0  0  0  0  0  0  0
   53.4630   79.3090   26.4290 C   0  0  0  0  0  0  0  0  0  0  0  0
   53.4630   78.8900   25.1050 C   0  0  0  0  0  0  0  0  0  0  0  0
   53.5640   77.5890   24.8020 F   0  0  0  0  0  0  0  0  0  0  0  0
   53.3110   79.8140   24.0740 C   0  0  0  0  0  0  0  0  0  0  0  0
   53.1600   81.1700   24.3760 C   0  0  0  0  0  0  0  0  0  0  0  0
   53.1600   81.5930   25.7070 C   0  0  0  0  0  0  0  0  0  0  0  0
   53.3130   80.6570   26.7280 C   0  0  0  0  0  0  0  0  0  0  0  0
   53.3100   81.0740   28.0010 F   0  0  0  0  0  0  0  0  0  0  0  0
   55.9410   78.8820   27.9360 N   0  0  0  0  0  0  0  0  0  0  0  0
   59.3080   80.9410   29.0680 C   0  0  0  0  0  0  0  0  0  0  0  0
   59.8480   81.9940   29.8140 C   0  0  0  0  0  0  0  0  0  0  0  0
   66.6810   83.5520   30.7360 C   0  0  0  0  0  0  0  0  0  0  0  0
   66.7830   84.4510   29.4700 C   0  0  0  0  0  0  0  0  0  0  0  0
   65.7348   86.5667   27.8798 H   0  0  0  0  0  0  0  0  0  0  0  0
   66.4316   85.1268   27.0626 H   0  0  0  0  0  0  0  0  0  0  0  0
   64.6543   85.3871   27.0626 H   0  0  0  0  0  0  0  0  0  0  0  0
   64.8073   86.5193   29.7893 H   0  0  0  0  0  0  0  0  0  0  0  0
   63.5759   85.1724   29.6299 H   0  0  0  0  0  0  0  0  0  0  0  0
   65.5602   85.7277   31.7908 H   0  0  0  0  0  0  0  0  0  0  0  0
   63.8694   84.9905   31.8159 H   0  0  0  0  0  0  0  0  0  0  0  0
   63.5417   83.1293   30.7132 H   0  0  0  0  0  0  0  0  0  0  0  0
   64.9103   81.9964   30.3318 H   0  0  0  0  0  0  0  0  0  0  0  0
   64.1307   80.6580   31.9377 H   0  0  0  0  0  0  0  0  0  0  0  0
   64.6638   81.9355   33.1189 H   0  0  0  0  0  0  0  0  0  0  0  0
   62.4750   83.4500   31.2890 H   0  0  0  0  0  0  0  0  0  0  0  0
   58.9002   80.9693   32.9325 H   0  0  0  0  0  0  0  0  0  0  0  0
   57.9381   79.1048   31.5892 H   0  0  0  0  0  0  0  0  0  0  0  0
   58.7880   78.4330   28.2750 H   0  0  0  0  0  0  0  0  0  0  0  0
   54.1290   75.4730   28.2920 H   0  0  0  0  0  0  0  0  0  0  0  0
   53.7480   75.9910   29.8060 H   0  0  0  0  0  0  0  0  0  0  0  0
   53.3098   79.4778   23.0266 H   0  0  0  0  0  0  0  0  0  0  0  0
   53.0412   81.9041   23.5655 H   0  0  0  0  0  0  0  0  0  0  0  0
   53.0398   82.6595   25.9482 H   0  0  0  0  0  0  0  0  0  0  0  0
   59.4372   80.9342   27.9756 H   0  0  0  0  0  0  0  0  0  0  0  0
   60.3957   82.8059   29.3132 H   0  0  0  0  0  0  0  0  0  0  0  0
   67.5148   83.8191   31.4019 H   0  0  0  0  0  0  0  0  0  0  0  0
   66.7055   82.5191   30.3585 H   0  0  0  0  0  0  0  0  0  0  0  0
   67.2670   85.3990   29.7474 H   0  0  0  0  0  0  0  0  0  0  0  0
   67.3701   83.9056   28.7165 H   0  0  0  0  0  0  0  0  0  0  0  0
  1  2  1  0
  2  3  1  0
  3  4  1  0
  4  5  1  0
  5  6  1  0
  6  7  1  0
  7  8  1  0
  8  9  2  0
  8 10  1  0
 10 11  1  0
 11 12  2  0
 11 13  2  0
 11 14  1  0
 14 15  1  0
 15 16  2  0
 16 17  1  0
 17 18  1  0
 18 19  1  0
 19 20  1  0
 20 21  2  0
 21 22  1  0
 21 23  1  0
 23 24  1  0
 24 25  2  0
 24 26  1  0
 26 27  2  0
 27 28  1  0
 27 29  1  0
 29 30  2  0
 30 31  1  0
 31 32  2  0
 32 33  1  0
 23 34  1  0
 17 35  2  0
 35 36  1  0
  5 37  1  0
 37 38  1  0
 38  2  1  0
 36 14  2  0
 34 19  2  0
 32 26  1  0
  1 39  1  0
  1 40  1  0
  1 41  1  0
  3 42  1  0
  3 43  1  0
  4 44  1  0
  4 45  1  0
  6 46  1  0
  6 47  1  0
  7 48  1  0
  7 49  1  0
 10 50  1  0
 15 51  1  0
 16 52  1  0
 18 53  1  0
 22 54  1  0
 22 55  1  0
 29 56  1  0
 30 57  1  0
 31 58  1  0
 35 59  1  0
 36 60  1  0
 37 61  1  0
 37 62  1  0
 38 63  1  0
 38 64  1  0
M  END
>  <meeko>  (1) 
{"is_sidechain": false}

>  <smiles>  (1) 
CN1CCN(CCC(=O)NS(=O)(=O)c2ccc(Nc3nc(N)n(C(=O)c4c(F)cccc4F)n3)cc2)CC1

>  <vina_score>  (1) 
-9.085

>  <job_id>  (1) 
b449e894117bc75e

$$$$
