
     RDKit          3D

 37 38  0  0  0  0  0  0  0  0999 V2000
   59.5180   80.6040   29.1500 C   0  0  0  0  0  0  0  0  0  0  0  0
   58.1190   80.4330   29.7380 C   0  0  0  0  0  0  0  0  0  0  0  0
   58.2130   80.1810   31.2400 C   0  0  0  0  0  0  0  0  0  0  0  0
   57.5370   79.2980   29.0890 O   0  0  0  0  0  0  0  0  0  0  0  0
   56.5750   79.4930   28.1400 C   0  0  0  0  0  0  0  0  0  0  0  0
   56.8290   80.5540   27.2700 C   0  0  0  0  0  0  0  0  0  0  0  0
   55.9340   80.8700   26.2430 C   0  0  0  0  0  0  0  0  0  0  0  0
   54.7600   80.1270   26.0580 C   0  0  0  0  0  0  0  0  0  0  0  0
   53.8130   80.4530   24.9780 C   0  0  0  0  0  0  0  0  0  0  0  0
   53.4300   81.7840   24.7300 C   0  0  0  0  0  0  0  0  0  0  0  0
   52.5290   82.0980   23.7090 C   0  0  0  0  0  0  0  0  0  0  0  0
   52.0070   81.0750   22.9150 C   0  0  0  0  0  0  0  0  0  0  0  0
   50.8610   81.4770   21.6250 S   0  0  0  0  0  0  0  0  0  0  0  0
   49.3970   81.0190   22.3220 N   0  0  0  0  0  0  0  0  0  0  0  0
   51.1130   80.6070   20.5020 O   0  0  0  0  0  0  0  0  0  0  0  0
   50.7950   82.9150   21.4970 O   0  0  0  0  0  0  0  0  0  0  0  0
   52.3590   79.7450   23.1470 C   0  0  0  0  0  0  0  0  0  0  0  0
   53.2610   79.4410   24.1710 C   0  0  0  0  0  0  0  0  0  0  0  0
   54.5180   79.0590   26.9360 C   0  0  0  0  0  0  0  0  0  0  0  0
   55.4160   78.7420   27.9650 C   0  0  0  0  0  0  0  0  0  0  0  0
   60.2503   80.6935   29.9660 H   0  0  0  0  0  0  0  0  0  0  0  0
   59.7647   79.7293   28.5303 H   0  0  0  0  0  0  0  0  0  0  0  0
   59.5468   81.5123   28.5303 H   0  0  0  0  0  0  0  0  0  0  0  0
   57.5099   81.3357   29.5825 H   0  0  0  0  0  0  0  0  0  0  0  0
   57.8788   81.0769   31.7837 H   0  0  0  0  0  0  0  0  0  0  0  0
   57.5725   79.3283   31.5095 H   0  0  0  0  0  0  0  0  0  0  0  0
   59.2555   79.9561   31.5095 H   0  0  0  0  0  0  0  0  0  0  0  0
   57.7454   81.1497   27.3937 H   0  0  0  0  0  0  0  0  0  0  0  0
   56.1543   81.7129   25.5714 H   0  0  0  0  0  0  0  0  0  0  0  0
   53.8469   82.5911   25.3503 H   0  0  0  0  0  0  0  0  0  0  0  0
   52.2334   83.1427   23.5323 H   0  0  0  0  0  0  0  0  0  0  0  0
   48.9780   80.2030   21.8770 H   0  0  0  0  0  0  0  0  0  0  0  0
   49.5400   80.8800   23.3230 H   0  0  0  0  0  0  0  0  0  0  0  0
   51.9303   78.9421   22.5292 H   0  0  0  0  0  0  0  0  0  0  0  0
   53.5440   78.3930   24.3488 H   0  0  0  0  0  0  0  0  0  0  0  0
   53.6047   78.4581   26.8142 H   0  0  0  0  0  0  0  0  0  0  0  0
   55.2040   77.8969   28.6364 H   0  0  0  0  0  0  0  0  0  0  0  0
  1  2  1  0
  2  3  1  0
  2  4  1  0
  4  5  1  0
  5  6  1  0
  6  7  2  0
  7  8  1  0
  8  9  1  0
  9 10  1  0
 10 11  2  0
 11 12  1  0
 12 13  1  0
 13 14  1  0
 13 15  2  0
 13 16  2  0
 12 17  2  0
 17 18  1  0
  8 19  2  0
 19 20  1  0
 20  5  2  0
 18  9  2  0
  1 21  1  0
  1 22  1  0
  1 23  1  0
  2 24  1  0
  3 25  1  0
  3 26  1  0
  3 27  1  0
  6 28  1  0
  7 29  1  0
 10 30  1  0
 11 31  1  0
 14 32  1  0
 14 33  1  0
 17 34  1  0
 18 35  1  0
 19 36  1  0
 20 37  1  0
M  END
>  <meeko>  (1) 
{"is_sidechain": false}

>  <smiles>  (1) 
CC(C)Oc1ccc(-c2ccc(S(N)(=O)=O)cc2)cc1

>  <vina_score>  (1) 
-7.635

>  <job_id>  (1) 
b4933a10b6277702

$$$$
