
     RDKit          3D

 61 64  0  0  0  0  0  0  0  0999 V2000
   53.0320   81.6550   23.9230 C   0  0  0  0  0  0  0  0  0  0  0  0
   53.3000   80.4340   24.7270 C   0  0  0  0  0  0  0  0  0  0  0  0
   52.9350   79.2270   24.3490 N   0  0  0  0  0  0  0  0  0  0  0  0
   53.3850   78.3790   25.3150 C   0  0  0  0  0  0  0  0  0  0  0  0
   54.0360   79.0580   26.3260 C   0  0  0  0  0  0  0  0  0  0  0  0
   54.6810   78.5230   27.5200 C   0  0  0  0  0  0  0  0  0  0  0  0
   54.0240   77.6650   28.3690 C   0  0  0  0  0  0  0  0  0  0  0  0
   54.7590   77.2290   29.4380 C   0  0  0  0  0  0  0  0  0  0  0  0
   56.0350   77.5940   29.6580 N   0  0  0  0  0  0  0  0  0  0  0  0
   56.6050   78.4220   28.7730 C   0  0  0  0  0  0  0  0  0  0  0  0
   57.9240   78.8470   28.8970 N   0  0  0  0  0  0  0  0  0  0  0  0
   58.5580   79.8570   29.6270 C   0  0  0  0  0  0  0  0  0  0  0  0
   58.6540   79.8730   31.0190 C   0  0  0  0  0  0  0  0  0  0  0  0
   59.3050   80.9160   31.6960 C   0  0  0  0  0  0  0  0  0  0  0  0
   59.8620   81.9930   31.0000 C   0  0  0  0  0  0  0  0  0  0  0  0
   60.5960   83.0370   31.6210 N   0  0  0  0  0  0  0  0  0  0  0  0
   61.9830   82.9650   31.6500 N   0  0  0  0  0  0  0  0  0  0  0  0
   62.4140   83.3490   32.9160 N   0  0  0  0  0  0  0  0  0  0  0  0
   62.4460   82.3700   33.9370 C   0  0  0  0  0  0  0  0  0  0  0  0
   62.9510   81.0950   33.6450 C   0  0  0  0  0  0  0  0  0  0  0  0
   63.0600   80.1130   34.6380 C   0  0  0  0  0  0  0  0  0  0  0  0
   62.6810   80.4030   35.9530 C   0  0  0  0  0  0  0  0  0  0  0  0
   62.7790   79.3990   37.0450 C   0  0  0  0  0  0  0  0  0  0  0  0
   64.0040   79.2120   37.6240 N   0  0  0  0  0  0  0  0  0  0  0  0
   61.8140   78.7320   37.3990 O   0  0  0  0  0  0  0  0  0  0  0  0
   62.2270   81.6870   36.2670 C   0  0  0  0  0  0  0  0  0  0  0  0
   62.1200   82.6620   35.2690 C   0  0  0  0  0  0  0  0  0  0  0  0
   59.7960   81.9640   29.6030 C   0  0  0  0  0  0  0  0  0  0  0  0
   59.1460   80.9210   28.9300 C   0  0  0  0  0  0  0  0  0  0  0  0
   55.9590   78.9060   27.7000 N   0  0  0  0  0  0  0  0  0  0  0  0
   53.9410   80.3960   25.9540 N   0  0  0  0  0  0  0  0  0  0  0  0
   54.4150   81.5280   26.7530 C   0  0  0  0  0  0  0  0  0  0  0  0
   55.5560   82.2780   26.0620 C   0  0  0  0  0  0  0  0  0  0  0  0
   53.3100   82.4820   27.2140 C   0  0  0  0  0  0  0  0  0  0  0  0
   52.8456   82.5042   24.5969 H   0  0  0  0  0  0  0  0  0  0  0  0
   53.9033   81.8748   23.2885 H   0  0  0  0  0  0  0  0  0  0  0  0
   52.1488   81.4897   23.2885 H   0  0  0  0  0  0  0  0  0  0  0  0
   53.2469   77.2879   25.2927 H   0  0  0  0  0  0  0  0  0  0  0  0
   52.9830   77.3515   28.2015 H   0  0  0  0  0  0  0  0  0  0  0  0
   54.2816   76.5445   30.1546 H   0  0  0  0  0  0  0  0  0  0  0  0
   58.5110   78.2600   28.3240 H   0  0  0  0  0  0  0  0  0  0  0  0
   58.2098   79.0502   31.5984 H   0  0  0  0  0  0  0  0  0  0  0  0
   59.3782   80.8855   32.7931 H   0  0  0  0  0  0  0  0  0  0  0  0
   60.2050   83.2290   32.5450 H   0  0  0  0  0  0  0  0  0  0  0  0
   62.3890   83.5830   30.9370 H   0  0  0  0  0  0  0  0  0  0  0  0
   63.2540   83.9260   32.9090 H   0  0  0  0  0  0  0  0  0  0  0  0
   63.2673   80.8616   32.6176 H   0  0  0  0  0  0  0  0  0  0  0  0
   63.4436   79.1139   34.3838 H   0  0  0  0  0  0  0  0  0  0  0  0
   64.8580   79.5090   37.1750 H   0  0  0  0  0  0  0  0  0  0  0  0
   64.0670   78.4330   38.2670 H   0  0  0  0  0  0  0  0  0  0  0  0
   61.9525   81.9323   37.3036 H   0  0  0  0  0  0  0  0  0  0  0  0
   61.7750   83.6725   35.5334 H   0  0  0  0  0  0  0  0  0  0  0  0
   60.2624   82.7739   29.0229 H   0  0  0  0  0  0  0  0  0  0  0  0
   59.0962   80.9378   27.8313 H   0  0  0  0  0  0  0  0  0  0  0  0
   54.8121   81.0775   27.6746 H   0  0  0  0  0  0  0  0  0  0  0  0
   56.2207   82.7149   26.8218 H   0  0  0  0  0  0  0  0  0  0  0  0
   56.1271   81.5786   25.4338 H   0  0  0  0  0  0  0  0  0  0  0  0
   55.1404   83.0796   25.4338 H   0  0  0  0  0  0  0  0  0  0  0  0
   53.2817   82.5064   28.3134 H   0  0  0  0  0  0  0  0  0  0  0  0
   53.5141   83.4924   26.8299 H   0  0  0  0  0  0  0  0  0  0  0  0
   52.3402   82.1327   26.8299 H   0  0  0  0  0  0  0  0  0  0  0  0
  1  2  1  0
  2  3  2  0
  3  4  1  0
  4  5  2  0
  5  6  1  0
  6  7  1  0
  7  8  2  0
  8  9  1  0
  9 10  2  0
 10 11  1  0
 11 12  1  0
 12 13  1  0
 13 14  2  0
 14 15  1  0
 15 16  1  0
 16 17  1  0
 17 18  1  0
 18 19  1  0
 19 20  1  0
 20 21  2  0
 21 22  1  0
 22 23  1  0
 23 24  1  0
 23 25  2  0
 22 26  2  0
 26 27  1  0
 15 28  2  0
 28 29  1  0
 10 30  1  0
  5 31  1  0
 31 32  1  0
 32 33  1  0
 32 34  1  0
 31  2  1  0
 30  6  2  0
 29 12  2  0
 27 19  2  0
  1 35  1  0
  1 36  1  0
  1 37  1  0
  4 38  1  0
  7 39  1  0
  8 40  1  0
 11 41  1  0
 13 42  1  0
 14 43  1  0
 16 44  1  0
 17 45  1  0
 18 46  1  0
 20 47  1  0
 21 48  1  0
 24 49  1  0
 24 50  1  0
 26 51  1  0
 27 52  1  0
 28 53  1  0
 29 54  1  0
 32 55  1  0
 33 56  1  0
 33 57  1  0
 33 58  1  0
 34 59  1  0
 34 60  1  0
 34 61  1  0
M  END
>  <meeko>  (1) 
{"is_sidechain": false}

>  <smiles>  (1) 
Cc1ncc(-c2ccnc(Nc3ccc(NNNc4ccc(C(N)=O)cc4)cc3)n2)n1C(C)C

>  <vina_score>  (1) 
-8.736

>  <job_id>  (1) 
b4a62754af90e2e9

$$$$
