
     RDKit          3D

 51 52  0  0  0  0  0  0  0  0999 V2000
   53.5430   81.7010   27.2530 C   0  0  0  0  0  0  0  0  0  0  0  0
   54.2800   80.5520   26.5690 C   0  0  1  0  0  0  0  0  0  0  0  0
   53.7100   79.3520   27.1150 O   0  0  0  0  0  0  0  0  0  0  0  0
   54.5880   78.5530   27.8110 C   0  0  0  0  0  0  0  0  0  0  0  0
   55.8300   79.0110   28.0580 N   0  0  0  0  0  0  0  0  0  0  0  0
   56.6730   78.2110   28.7280 C   0  0  0  0  0  0  0  0  0  0  0  0
   57.9480   78.7320   28.9290 N   0  0  0  0  0  0  0  0  0  0  0  0
   58.4520   79.8230   29.6450 C   0  0  0  0  0  0  0  0  0  0  0  0
   59.2270   80.8390   29.0750 C   0  0  0  0  0  0  0  0  0  0  0  0
   59.7020   81.9080   29.8420 C   0  0  0  0  0  0  0  0  0  0  0  0
   59.3990   81.9700   31.2030 C   0  0  0  0  0  0  0  0  0  0  0  0
   59.9960   83.3350   32.1790 S   0  0  0  0  0  0  0  0  0  0  0  0
   61.4490   82.6740   32.9540 C   0  0  0  0  0  0  0  0  0  0  0  0
   58.9350   83.5760   33.2700 N   0  0  0  0  0  0  0  0  0  0  0  0
   60.4420   84.3560   31.2520 O   0  0  0  0  0  0  0  0  0  0  0  0
   58.6360   80.9670   31.8000 C   0  0  0  0  0  0  0  0  0  0  0  0
   58.1690   79.9060   31.0190 C   0  0  0  0  0  0  0  0  0  0  0  0
   56.3260   76.9870   29.1460 N   0  0  0  0  0  0  0  0  0  0  0  0
   55.0800   76.5600   28.8620 C   0  0  0  0  0  0  0  0  0  0  0  0
   54.1540   77.3080   28.1820 C   0  0  0  0  0  0  0  0  0  0  0  0
   52.7920   76.8110   27.8810 C   0  0  0  0  0  0  0  0  0  0  0  0
   52.5100   76.7830   26.5500 F   0  0  0  0  0  0  0  0  0  0  0  0
   52.5860   75.5340   28.3190 F   0  0  0  0  0  0  0  0  0  0  0  0
   51.8100   77.5520   28.4650 F   0  0  0  0  0  0  0  0  0  0  0  0
   54.0600   80.6180   25.1600 O   0  0  0  0  0  0  0  0  0  0  0  0
   52.8160   80.0670   24.6900 C   0  0  2  0  0  0  0  0  0  0  0  0
   53.2150   78.8410   23.8630 C   0  0  0  0  0  0  0  0  0  0  0  0
   52.0480   81.0690   23.7840 C   0  0  2  0  0  0  0  0  0  0  0  0
   50.7220   80.6070   23.5400 O   0  0  0  0  0  0  0  0  0  0  0  0
   52.8800   81.3870   22.2020 S   0  0  0  0  0  0  0  0  0  0  0  0
   53.6169   81.5859   28.3445 H   0  0  0  0  0  0  0  0  0  0  0  0
   53.9966   82.6574   26.9537 H   0  0  0  0  0  0  0  0  0  0  0  0
   52.4846   81.6875   26.9537 H   0  0  0  0  0  0  0  0  0  0  0  0
   55.3666   80.5906   26.7360 H   0  0  0  0  0  0  0  0  0  0  0  0
   58.6350   78.1240   28.4920 H   0  0  0  0  0  0  0  0  0  0  0  0
   59.4675   80.7962   28.0025 H   0  0  0  0  0  0  0  0  0  0  0  0
   60.3112   82.6958   29.3749 H   0  0  0  0  0  0  0  0  0  0  0  0
   61.3369   82.7250   34.0471 H   0  0  0  0  0  0  0  0  0  0  0  0
   61.5835   81.6261   32.6477 H   0  0  0  0  0  0  0  0  0  0  0  0
   62.3273   83.2612   32.6477 H   0  0  0  0  0  0  0  0  0  0  0  0
   58.0700   83.9280   32.8530 H   0  0  0  0  0  0  0  0  0  0  0  0
   58.4041   81.0103   32.8744 H   0  0  0  0  0  0  0  0  0  0  0  0
   57.5654   79.1169   31.4913 H   0  0  0  0  0  0  0  0  0  0  0  0
   54.7889   75.5529   29.1951 H   0  0  0  0  0  0  0  0  0  0  0  0
   52.1497   79.8269   25.5317 H   0  0  0  0  0  0  0  0  0  0  0  0
   53.4838   78.0151   24.5380 H   0  0  0  0  0  0  0  0  0  0  0  0
   52.3698   78.5358   23.2286 H   0  0  0  0  0  0  0  0  0  0  0  0
   54.0779   79.0917   23.2286 H   0  0  0  0  0  0  0  0  0  0  0  0
   52.0215   82.0207   24.3349 H   0  0  0  0  0  0  0  0  0  0  0  0
   50.2850   80.6730   24.4210 H   0  0  0  0  0  0  0  0  0  0  0  0
   54.0500   80.8340   22.5540 H   0  0  0  0  0  0  0  0  0  0  0  0
  1  2  1  0
  2  3  1  0
  3  4  1  0
  4  5  2  0
  5  6  1  0
  6  7  1  0
  7  8  1  0
  8  9  1  0
  9 10  2  0
 10 11  1  0
 11 12  1  0
 12 13  1  0
 12 14  2  0
 12 15  2  0
 11 16  2  0
 16 17  1  0
  6 18  2  0
 18 19  1  0
 19 20  2  0
 20 21  1  0
 21 22  1  0
 21 23  1  0
 21 24  1  0
  2 25  1  0
 25 26  1  0
 26 27  1  0
 26 28  1  0
 28 29  1  0
 28 30  1  0
 20  4  1  0
 17  8  2  0
  1 31  1  0
  1 32  1  0
  1 33  1  0
  2 34  1  6
  7 35  1  0
  9 36  1  0
 10 37  1  0
 13 38  1  0
 13 39  1  0
 13 40  1  0
 14 41  1  0
 16 42  1  0
 17 43  1  0
 19 44  1  0
 26 45  1  1
 27 46  1  0
 27 47  1  0
 27 48  1  0
 28 49  1  1
 29 50  1  0
 30 51  1  0
M  END
>  <meeko>  (1) 
{"is_sidechain": false}

>  <smiles>  (1) 
C[C@@H](Oc1nc(Nc2ccc(S(C)(=N)=O)cc2)ncc1C(F)(F)F)O[C@H](C)[C@H](O)S

>  <vina_score>  (1) 
-8.027

>  <job_id>  (1) 
b4b0646aade7768f

$$$$
