
     RDKit          3D

 50 52  0  0  0  0  0  0  0  0999 V2000
   55.3760   76.5310   29.5760 C   0  0  0  0  0  0  0  0  0  0  0  0
   54.9830   77.6190   28.6110 C   0  0  0  0  0  0  0  0  0  0  0  0
   53.6850   77.6050   28.0800 C   0  0  0  0  0  0  0  0  0  0  0  0
   53.2750   78.5810   27.1780 C   0  0  0  0  0  0  0  0  0  0  0  0
   54.1570   79.5910   26.8020 C   0  0  0  0  0  0  0  0  0  0  0  0
   55.4560   79.6430   27.3300 C   0  0  0  0  0  0  0  0  0  0  0  0
   56.3650   80.7620   26.8940 C   0  0  0  0  0  0  0  0  0  0  0  0
   55.8790   78.6480   28.2430 C   0  0  0  0  0  0  0  0  0  0  0  0
   57.1540   78.7250   28.8580 N   0  0  0  0  0  0  0  0  0  0  0  0
   57.0600   79.1070   30.2700 C   0  0  0  0  0  0  0  0  0  0  0  0
   58.1690   80.0780   30.5970 C   0  0  0  0  0  0  0  0  0  0  0  0
   58.3130   80.6050   31.8820 C   0  0  0  0  0  0  0  0  0  0  0  0
   59.3450   81.5070   32.1670 C   0  0  0  0  0  0  0  0  0  0  0  0
   60.2760   81.9150   31.1950 C   0  0  0  0  0  0  0  0  0  0  0  0
   61.2780   82.8280   31.5330 N   0  0  0  0  0  0  0  0  0  0  0  0
   61.6420   82.8990   32.9680 C   0  0  0  0  0  0  0  0  0  0  0  0
   62.8290   81.9580   33.2910 C   0  0  0  0  0  0  0  0  0  0  0  0
   64.0320   82.1370   32.4450 N   0  0  0  0  0  0  0  0  0  0  0  0
   64.7450   83.3680   32.7760 C   0  0  0  0  0  0  0  0  0  0  0  0
   63.6270   82.1070   31.0200 C   0  0  0  0  0  0  0  0  0  0  0  0
   62.4400   83.0300   30.6450 C   0  0  0  0  0  0  0  0  0  0  0  0
   60.0980   81.3950   29.9060 C   0  0  0  0  0  0  0  0  0  0  0  0
   59.0710   80.4890   29.6100 C   0  0  0  0  0  0  0  0  0  0  0  0
   55.2460   76.8910   30.6073 H   0  0  0  0  0  0  0  0  0  0  0  0
   54.7398   75.6486   29.4127 H   0  0  0  0  0  0  0  0  0  0  0  0
   56.4292   76.2589   29.4127 H   0  0  0  0  0  0  0  0  0  0  0  0
   52.9832   76.8130   28.3804 H   0  0  0  0  0  0  0  0  0  0  0  0
   52.2567   78.5552   26.7627 H   0  0  0  0  0  0  0  0  0  0  0  0
   53.8315   80.3570   26.0827 H   0  0  0  0  0  0  0  0  0  0  0  0
   56.7756   81.2674   27.7805 H   0  0  0  0  0  0  0  0  0  0  0  0
   57.1888   80.3516   26.2915 H   0  0  0  0  0  0  0  0  0  0  0  0
   55.7945   81.4842   26.2915 H   0  0  0  0  0  0  0  0  0  0  0  0
   57.7430   79.3930   28.3680 H   0  0  0  0  0  0  0  0  0  0  0  0
   56.0866   79.5835   30.4581 H   0  0  0  0  0  0  0  0  0  0  0  0
   57.1547   78.2117   30.9020 H   0  0  0  0  0  0  0  0  0  0  0  0
   57.6109   80.3095   32.6756 H   0  0  0  0  0  0  0  0  0  0  0  0
   59.4307   81.9107   33.1867 H   0  0  0  0  0  0  0  0  0  0  0  0
   61.9256   83.9326   33.2157 H   0  0  0  0  0  0  0  0  0  0  0  0
   60.7736   82.5821   33.5641 H   0  0  0  0  0  0  0  0  0  0  0  0
   63.1219   82.1286   34.3375 H   0  0  0  0  0  0  0  0  0  0  0  0
   62.4688   80.9377   33.0926 H   0  0  0  0  0  0  0  0  0  0  0  0
   64.8062   83.4736   33.8692 H   0  0  0  0  0  0  0  0  0  0  0  0
   65.7601   83.3286   32.3540 H   0  0  0  0  0  0  0  0  0  0  0  0
   64.2057   84.2289   32.3540 H   0  0  0  0  0  0  0  0  0  0  0  0
   64.4947   82.4077   30.4145 H   0  0  0  0  0  0  0  0  0  0  0  0
   63.2849   81.0800   30.8245 H   0  0  0  0  0  0  0  0  0  0  0  0
   62.7671   84.0774   30.7215 H   0  0  0  0  0  0  0  0  0  0  0  0
   62.1295   82.7830   29.6190 H   0  0  0  0  0  0  0  0  0  0  0  0
   60.7836   81.7067   29.1043 H   0  0  0  0  0  0  0  0  0  0  0  0
   58.9727   80.0955   28.5875 H   0  0  0  0  0  0  0  0  0  0  0  0
  1  2  1  0
  2  3  1  0
  3  4  2  0
  4  5  1  0
  5  6  2  0
  6  7  1  0
  6  8  1  0
  8  9  1  0
  9 10  1  0
 10 11  1  0
 11 12  1  0
 12 13  2  0
 13 14  1  0
 14 15  1  0
 15 16  1  0
 16 17  1  0
 17 18  1  0
 18 19  1  0
 18 20  1  0
 20 21  1  0
 14 22  2  0
 22 23  1  0
  8  2  2  0
 23 11  2  0
 21 15  1  0
  1 24  1  0
  1 25  1  0
  1 26  1  0
  3 27  1  0
  4 28  1  0
  5 29  1  0
  7 30  1  0
  7 31  1  0
  7 32  1  0
  9 33  1  0
 10 34  1  0
 10 35  1  0
 12 36  1  0
 13 37  1  0
 16 38  1  0
 16 39  1  0
 17 40  1  0
 17 41  1  0
 19 42  1  0
 19 43  1  0
 19 44  1  0
 20 45  1  0
 20 46  1  0
 21 47  1  0
 21 48  1  0
 22 49  1  0
 23 50  1  0
M  END
>  <meeko>  (1) 
{"is_sidechain": false}

>  <smiles>  (1) 
Cc1cccc(C)c1NCc1ccc(N2CCN(C)CC2)cc1

>  <vina_score>  (1) 
-7.992

>  <job_id>  (1) 
b4e8180cf0f29063

$$$$
