
     RDKit          3D

 43 44  0  0  0  0  0  0  0  0999 V2000
   62.9370   82.4130   33.4830 C   0  0  0  0  0  0  0  0  0  0  0  0
   62.0660   81.7450   32.5480 N   0  0  0  0  0  0  0  0  0  0  0  0
   60.8440   82.2930   32.2200 C   0  0  0  0  0  0  0  0  0  0  0  0
   60.4550   83.3800   32.6280 O   0  0  0  0  0  0  0  0  0  0  0  0
   59.9610   81.4680   31.3480 C   0  0  0  0  0  0  0  0  0  0  0  0
   60.1320   81.5520   29.9600 C   0  0  0  0  0  0  0  0  0  0  0  0
   59.3290   80.7960   29.1000 C   0  0  0  0  0  0  0  0  0  0  0  0
   58.3610   79.9330   29.6280 C   0  0  0  0  0  0  0  0  0  0  0  0
   57.4780   79.1080   28.7530 C   0  0  0  0  0  0  0  0  0  0  0  0
   58.0050   78.2800   28.0210 O   0  0  0  0  0  0  0  0  0  0  0  0
   56.1300   79.4060   28.8370 N   0  0  0  0  0  0  0  0  0  0  0  0
   55.0690   78.7550   28.1750 C   0  0  0  0  0  0  0  0  0  0  0  0
   54.2690   77.7690   28.7600 C   0  0  0  0  0  0  0  0  0  0  0  0
   53.2140   77.1870   28.0480 C   0  0  0  0  0  0  0  0  0  0  0  0
   52.9530   77.5790   26.7370 C   0  0  0  0  0  0  0  0  0  0  0  0
   53.7650   78.5440   26.1360 C   0  0  0  0  0  0  0  0  0  0  0  0
   53.5000   79.0100   24.7550 C   0  0  0  0  0  0  0  0  0  0  0  0
   53.8060   78.2500   23.8380 O   0  0  0  0  0  0  0  0  0  0  0  0
   52.9380   80.2680   24.5560 N   0  0  0  0  0  0  0  0  0  0  0  0
   52.8420   80.7680   23.1950 C   0  0  0  0  0  0  0  0  0  0  0  0
   52.1840   81.0060   25.5620 C   0  0  0  0  0  0  0  0  0  0  0  0
   54.8030   79.1460   26.8580 C   0  0  0  0  0  0  0  0  0  0  0  0
   58.1880   79.8490   31.0170 C   0  0  0  0  0  0  0  0  0  0  0  0
   58.9900   80.6070   31.8760 C   0  0  0  0  0  0  0  0  0  0  0  0
   62.6249   82.1736   34.5103 H   0  0  0  0  0  0  0  0  0  0  0  0
   63.9719   82.0748   33.3260 H   0  0  0  0  0  0  0  0  0  0  0  0
   62.8787   83.5002   33.3260 H   0  0  0  0  0  0  0  0  0  0  0  0
   62.2090   80.7540   32.4020 H   0  0  0  0  0  0  0  0  0  0  0  0
   60.9030   82.2171   29.5438 H   0  0  0  0  0  0  0  0  0  0  0  0
   59.4576   80.8792   28.0107 H   0  0  0  0  0  0  0  0  0  0  0  0
   55.8700   80.2160   29.3860 H   0  0  0  0  0  0  0  0  0  0  0  0
   54.4711   77.4468   29.7921 H   0  0  0  0  0  0  0  0  0  0  0  0
   52.5890   76.4177   28.5251 H   0  0  0  0  0  0  0  0  0  0  0  0
   52.1156   77.1330   26.1803 H   0  0  0  0  0  0  0  0  0  0  0  0
   52.6346   81.8481   23.2149 H   0  0  0  0  0  0  0  0  0  0  0  0
   53.7914   80.5866   22.6699 H   0  0  0  0  0  0  0  0  0  0  0  0
   52.0273   80.2478   22.6699 H   0  0  0  0  0  0  0  0  0  0  0  0
   52.5058   80.6910   26.5656 H   0  0  0  0  0  0  0  0  0  0  0  0
   52.3669   82.0838   25.4397 H   0  0  0  0  0  0  0  0  0  0  0  0
   51.1104   80.8001   25.4397 H   0  0  0  0  0  0  0  0  0  0  0  0
   55.4129   79.9310   26.3870 H   0  0  0  0  0  0  0  0  0  0  0  0
   57.4174   79.1834   31.4331 H   0  0  0  0  0  0  0  0  0  0  0  0
   58.8586   80.5273   32.9652 H   0  0  0  0  0  0  0  0  0  0  0  0
  1  2  1  0
  2  3  1  0
  3  4  2  0
  3  5  1  0
  5  6  1  0
  6  7  2  0
  7  8  1  0
  8  9  1  0
  9 10  2  0
  9 11  1  0
 11 12  1  0
 12 13  2  0
 13 14  1  0
 14 15  2  0
 15 16  1  0
 16 17  1  0
 17 18  2  0
 17 19  1  0
 19 20  1  0
 19 21  1  0
 16 22  2  0
  8 23  2  0
 23 24  1  0
 24  5  2  0
 22 12  1  0
  1 25  1  0
  1 26  1  0
  1 27  1  0
  2 28  1  0
  6 29  1  0
  7 30  1  0
 11 31  1  0
 13 32  1  0
 14 33  1  0
 15 34  1  0
 20 35  1  0
 20 36  1  0
 20 37  1  0
 21 38  1  0
 21 39  1  0
 21 40  1  0
 22 41  1  0
 23 42  1  0
 24 43  1  0
M  END
>  <meeko>  (1) 
{"is_sidechain": false}

>  <smiles>  (1) 
CNC(=O)c1ccc(C(=O)Nc2cccc(C(=O)N(C)C)c2)cc1

>  <vina_score>  (1) 
-8.215

>  <job_id>  (1) 
b4f749a52c9f827f

$$$$
