
     RDKit          3D

 51 53  0  0  0  0  0  0  0  0999 V2000
   52.7610   81.6310   24.0840 C   0  0  0  0  0  0  0  0  0  0  0  0
   53.1830   80.3880   24.7810 C   0  0  0  0  0  0  0  0  0  0  0  0
   52.9350   79.1720   24.3430 N   0  0  0  0  0  0  0  0  0  0  0  0
   53.4530   78.3310   25.2800 C   0  0  0  0  0  0  0  0  0  0  0  0
   54.0480   79.0220   26.3190 C   0  0  0  0  0  0  0  0  0  0  0  0
   54.7040   78.4750   27.4970 C   0  0  0  0  0  0  0  0  0  0  0  0
   54.0350   77.6570   28.3740 C   0  0  0  0  0  0  0  0  0  0  0  0
   54.7690   77.2350   29.4510 C   0  0  0  0  0  0  0  0  0  0  0  0
   56.0490   77.5910   29.6590 N   0  0  0  0  0  0  0  0  0  0  0  0
   56.6180   78.4100   28.7620 C   0  0  0  0  0  0  0  0  0  0  0  0
   57.9350   78.8440   28.8880 N   0  0  0  0  0  0  0  0  0  0  0  0
   58.5620   79.8570   29.6210 C   0  0  0  0  0  0  0  0  0  0  0  0
   58.4140   79.8570   31.0200 C   0  0  0  0  0  0  0  0  0  0  0  0
   58.9900   80.8540   31.8140 C   0  0  0  0  0  0  0  0  0  0  0  0
   59.7100   81.8860   31.2140 C   0  0  0  0  0  0  0  0  0  0  0  0
   60.3360   82.9200   32.0710 C   0  0  0  0  0  0  0  0  0  0  0  0
   61.4500   82.6750   32.5320 O   0  0  0  0  0  0  0  0  0  0  0  0
   59.6550   84.1140   32.3040 N   0  0  0  0  0  0  0  0  0  0  0  0
   58.2180   84.2900   32.1450 C   0  0  0  0  0  0  0  0  0  0  0  0
   60.3530   85.1740   33.0080 C   0  0  0  0  0  0  0  0  0  0  0  0
   59.8860   81.8960   29.8300 C   0  0  0  0  0  0  0  0  0  0  0  0
   59.3040   80.8940   29.0440 C   0  0  0  0  0  0  0  0  0  0  0  0
   55.9800   78.8620   27.6720 N   0  0  0  0  0  0  0  0  0  0  0  0
   53.8900   80.3540   25.9760 N   0  0  0  0  0  0  0  0  0  0  0  0
   54.3900   81.5470   26.6620 C   0  0  0  0  0  0  0  0  0  0  0  0
   55.5460   82.2100   25.9120 C   0  0  0  0  0  0  0  0  0  0  0  0
   53.3100   82.5510   27.0730 C   0  0  0  0  0  0  0  0  0  0  0  0
   52.5005   82.3982   24.8280 H   0  0  0  0  0  0  0  0  0  0  0  0
   53.5855   81.9961   23.4541 H   0  0  0  0  0  0  0  0  0  0  0  0
   51.8846   81.4186   23.4541 H   0  0  0  0  0  0  0  0  0  0  0  0
   53.4040   77.2339   25.2178 H   0  0  0  0  0  0  0  0  0  0  0  0
   52.9861   77.3621   28.2227 H   0  0  0  0  0  0  0  0  0  0  0  0
   54.2866   76.5708   30.1832 H   0  0  0  0  0  0  0  0  0  0  0  0
   58.5000   78.3590   28.2060 H   0  0  0  0  0  0  0  0  0  0  0  0
   57.8328   79.0557   31.4997 H   0  0  0  0  0  0  0  0  0  0  0  0
   58.8753   80.8239   32.9076 H   0  0  0  0  0  0  0  0  0  0  0  0
   57.7439   84.3481   33.1359 H   0  0  0  0  0  0  0  0  0  0  0  0
   58.0216   85.2189   31.5895 H   0  0  0  0  0  0  0  0  0  0  0  0
   57.8032   83.4359   31.5895 H   0  0  0  0  0  0  0  0  0  0  0  0
   60.2527   85.0217   34.0928 H   0  0  0  0  0  0  0  0  0  0  0  0
   61.4178   85.1579   32.7324 H   0  0  0  0  0  0  0  0  0  0  0  0
   59.9176   86.1458   32.7324 H   0  0  0  0  0  0  0  0  0  0  0  0
   60.4816   82.6905   29.3566 H   0  0  0  0  0  0  0  0  0  0  0  0
   59.4324   80.9224   27.9519 H   0  0  0  0  0  0  0  0  0  0  0  0
   54.7911   81.1684   27.6137 H   0  0  0  0  0  0  0  0  0  0  0  0
   56.2644   82.6220   26.6360 H   0  0  0  0  0  0  0  0  0  0  0  0
   56.0494   81.4633   25.2803 H   0  0  0  0  0  0  0  0  0  0  0  0
   55.1557   83.0215   25.2803 H   0  0  0  0  0  0  0  0  0  0  0  0
   53.2553   82.6019   28.1705 H   0  0  0  0  0  0  0  0  0  0  0  0
   53.5609   83.5441   26.6719 H   0  0  0  0  0  0  0  0  0  0  0  0
   52.3378   82.2285   26.6719 H   0  0  0  0  0  0  0  0  0  0  0  0
  1  2  1  0
  2  3  2  0
  3  4  1  0
  4  5  2  0
  5  6  1  0
  6  7  1  0
  7  8  2  0
  8  9  1  0
  9 10  2  0
 10 11  1  0
 11 12  1  0
 12 13  1  0
 13 14  2  0
 14 15  1  0
 15 16  1  0
 16 17  2  0
 16 18  1  0
 18 19  1  0
 18 20  1  0
 15 21  2  0
 21 22  1  0
 10 23  1  0
  5 24  1  0
 24 25  1  0
 25 26  1  0
 25 27  1  0
 24  2  1  0
 23  6  2  0
 22 12  2  0
  1 28  1  0
  1 29  1  0
  1 30  1  0
  4 31  1  0
  7 32  1  0
  8 33  1  0
 11 34  1  0
 13 35  1  0
 14 36  1  0
 19 37  1  0
 19 38  1  0
 19 39  1  0
 20 40  1  0
 20 41  1  0
 20 42  1  0
 21 43  1  0
 22 44  1  0
 25 45  1  0
 26 46  1  0
 26 47  1  0
 26 48  1  0
 27 49  1  0
 27 50  1  0
 27 51  1  0
M  END
>  <meeko>  (1) 
{"is_sidechain": false}

>  <smiles>  (1) 
Cc1ncc(-c2ccnc(Nc3ccc(C(=O)N(C)C)cc3)n2)n1C(C)C

>  <vina_score>  (1) 
-8.787

>  <job_id>  (1) 
b5475701ef705a8a

$$$$
