
     RDKit          3D

 33 34  0  0  0  0  0  0  0  0999 V2000
   54.8410   77.5510   28.8110 C   0  0  0  0  0  0  0  0  0  0  0  0
   55.2290   78.6900   27.9050 C   0  0  0  0  0  0  0  0  0  0  0  0
   54.3580   79.0490   26.8580 C   0  0  0  0  0  0  0  0  0  0  0  0
   54.6510   80.1030   25.9740 C   0  0  0  0  0  0  0  0  0  0  0  0
   53.7260   80.4580   24.8850 C   0  0  0  0  0  0  0  0  0  0  0  0
   53.4010   81.8010   24.6220 C   0  0  0  0  0  0  0  0  0  0  0  0
   52.5280   82.1450   23.5850 C   0  0  0  0  0  0  0  0  0  0  0  0
   51.9640   81.1380   22.8020 C   0  0  0  0  0  0  0  0  0  0  0  0
   50.8650   81.5550   21.4760 S   0  0  0  0  0  0  0  0  0  0  0  0
   49.3630   81.2510   22.1750 N   0  0  0  0  0  0  0  0  0  0  0  0
   50.9140   82.9840   21.2700 O   0  0  0  0  0  0  0  0  0  0  0  0
   51.0600   80.6070   20.4060 O   0  0  0  0  0  0  0  0  0  0  0  0
   52.2780   79.7970   23.0330 C   0  0  0  0  0  0  0  0  0  0  0  0
   53.1520   79.4650   24.0710 C   0  0  0  0  0  0  0  0  0  0  0  0
   55.8480   80.8090   26.1640 C   0  0  0  0  0  0  0  0  0  0  0  0
   56.7210   80.4760   27.2040 C   0  0  0  0  0  0  0  0  0  0  0  0
   56.4200   79.4190   28.0770 C   0  0  0  0  0  0  0  0  0  0  0  0
   57.3570   79.1070   29.1900 C   0  0  0  0  0  0  0  0  0  0  0  0
   57.0600   79.1190   30.3730 O   0  0  0  0  0  0  0  0  0  0  0  0
   58.5680   78.7830   28.6780 O   0  0  0  0  0  0  0  0  0  0  0  0
   58.5430   77.5280   28.0200 F   0  0  0  0  0  0  0  0  0  0  0  0
   54.9477   77.8642   29.8601 H   0  0  0  0  0  0  0  0  0  0  0  0
   53.7958   77.2681   28.6173 H   0  0  0  0  0  0  0  0  0  0  0  0
   55.4961   76.6889   28.6173 H   0  0  0  0  0  0  0  0  0  0  0  0
   53.4206   78.4883   26.7278 H   0  0  0  0  0  0  0  0  0  0  0  0
   53.8414   82.5949   25.2431 H   0  0  0  0  0  0  0  0  0  0  0  0
   52.2883   83.2004   23.3886 H   0  0  0  0  0  0  0  0  0  0  0  0
   49.4730   80.5350   22.8940 H   0  0  0  0  0  0  0  0  0  0  0  0
   48.6430   81.0050   21.4970 H   0  0  0  0  0  0  0  0  0  0  0  0
   51.8407   79.0086   22.4028 H   0  0  0  0  0  0  0  0  0  0  0  0
   53.3956   78.4082   24.2550 H   0  0  0  0  0  0  0  0  0  0  0  0
   56.1034   81.6361   25.4853 H   0  0  0  0  0  0  0  0  0  0  0  0
   57.6514   81.0471   27.3392 H   0  0  0  0  0  0  0  0  0  0  0  0
  1  2  1  0
  2  3  1  0
  3  4  2  0
  4  5  1  0
  5  6  1  0
  6  7  2  0
  7  8  1  0
  8  9  1  0
  9 10  1  0
  9 11  2  0
  9 12  2  0
  8 13  2  0
 13 14  1  0
  4 15  1  0
 15 16  2  0
 16 17  1  0
 17 18  1  0
 18 19  2  0
 18 20  1  0
 20 21  1  0
 17  2  2  0
 14  5  2  0
  1 22  1  0
  1 23  1  0
  1 24  1  0
  3 25  1  0
  6 26  1  0
  7 27  1  0
 10 28  1  0
 10 29  1  0
 13 30  1  0
 14 31  1  0
 15 32  1  0
 16 33  1  0
M  END
>  <meeko>  (1) 
{"is_sidechain": false}

>  <smiles>  (1) 
Cc1cc(-c2ccc(S(N)(=O)=O)cc2)ccc1C(=O)OF

>  <vina_score>  (1) 
-8.526

>  <job_id>  (1) 
b67ba34c86eabdf1

$$$$
