
     RDKit          3D

 69 74  0  0  0  0  0  0  0  0999 V2000
   51.8100   83.0170   22.4230 C   0  0  0  0  0  0  0  0  0  0  0  0
   52.4100   81.8970   23.1930 C   0  0  0  0  0  0  0  0  0  0  0  0
   52.3160   80.6270   22.8550 N   0  0  0  0  0  0  0  0  0  0  0  0
   52.8810   79.9170   23.8880 C   0  0  0  0  0  0  0  0  0  0  0  0
   53.0080   78.5330   24.0750 C   0  0  0  0  0  0  0  0  0  0  0  0
   52.5710   77.6670   23.1480 F   0  0  0  0  0  0  0  0  0  0  0  0
   53.5850   78.0380   25.2470 C   0  0  0  0  0  0  0  0  0  0  0  0
   54.0390   78.8930   26.2670 C   0  0  0  0  0  0  0  0  0  0  0  0
   54.6370   78.3270   27.4980 C   0  0  0  0  0  0  0  0  0  0  0  0
   55.9640   78.5790   27.6610 N   0  0  0  0  0  0  0  0  0  0  0  0
   56.5790   78.0870   28.7530 C   0  0  0  0  0  0  0  0  0  0  0  0
   57.9260   78.4150   28.8710 N   0  0  0  0  0  0  0  0  0  0  0  0
   58.4550   79.5770   29.4560 C   0  0  0  0  0  0  0  0  0  0  0  0
   58.9230   80.5780   28.6070 C   0  0  0  0  0  0  0  0  0  0  0  0
   59.4530   81.7500   29.1440 C   0  0  0  0  0  0  0  0  0  0  0  0
   59.5090   81.9100   30.5280 C   0  0  0  0  0  0  0  0  0  0  0  0
   59.0180   80.8710   31.3130 C   0  0  0  0  0  0  0  0  0  0  0  0
   58.5110   79.7240   30.7940 N   0  0  0  0  0  0  0  0  0  0  0  0
   59.0730   80.9640   32.8110 C   0  0  0  0  0  0  0  0  0  0  0  0
   59.0190   82.4170   33.2600 C   0  0  0  0  0  0  0  0  0  0  0  0
   60.0470   83.2160   32.5920 N   0  0  0  0  0  0  0  0  0  0  0  0
   60.6920   84.2160   33.3300 C   0  0  0  0  0  0  0  0  0  0  0  0
   60.0490   85.0370   33.9850 O   0  0  0  0  0  0  0  0  0  0  0  0
   62.2410   84.2020   33.2920 C   0  0  0  0  0  0  0  0  0  0  0  0
   62.8170   82.8420   33.3910 N   0  0  0  0  0  0  0  0  0  0  0  0
   64.2240   82.8570   32.9940 C   0  0  0  0  0  0  0  0  0  0  0  0
   62.6840   82.2990   34.7440 C   0  0  0  0  0  0  0  0  0  0  0  0
   60.0630   83.1710   31.1310 C   0  0  0  0  0  0  0  0  0  0  0  0
   55.9390   77.3950   29.7070 N   0  0  0  0  0  0  0  0  0  0  0  0
   54.6300   77.1480   29.5170 C   0  0  0  0  0  0  0  0  0  0  0  0
   53.9290   77.5900   28.4270 C   0  0  0  0  0  0  0  0  0  0  0  0
   52.6280   77.3010   28.2930 F   0  0  0  0  0  0  0  0  0  0  0  0
   53.9240   80.2890   26.0720 C   0  0  0  0  0  0  0  0  0  0  0  0
   53.3590   80.7750   24.8780 C   0  0  0  0  0  0  0  0  0  0  0  0
   53.1250   82.0340   24.3650 N   0  0  0  0  0  0  0  0  0  0  0  0
   53.4260   83.3160   25.0460 C   0  0  0  0  0  0  0  0  0  0  0  0
   52.9380   83.4120   26.5200 C   0  0  0  0  0  0  0  0  0  0  0  0
   54.2430   84.1700   26.8270 C   0  0  0  0  0  0  0  0  0  0  0  0
   54.8610   83.4060   25.6430 C   0  0  0  0  0  0  0  0  0  0  0  0
   51.4081   83.7672   23.1199 H   0  0  0  0  0  0  0  0  0  0  0  0
   52.5805   83.4806   21.7895 H   0  0  0  0  0  0  0  0  0  0  0  0
   50.9971   82.6324   21.7895 H   0  0  0  0  0  0  0  0  0  0  0  0
   53.6869   76.9503   25.3754 H   0  0  0  0  0  0  0  0  0  0  0  0
   58.4080   77.5830   29.1810 H   0  0  0  0  0  0  0  0  0  0  0  0
   58.8743   80.4437   27.5163 H   0  0  0  0  0  0  0  0  0  0  0  0
   59.8249   82.5441   28.4798 H   0  0  0  0  0  0  0  0  0  0  0  0
   58.2169   80.4215   33.2385 H   0  0  0  0  0  0  0  0  0  0  0  0
   60.0173   80.5201   33.1593 H   0  0  0  0  0  0  0  0  0  0  0  0
   58.0291   82.8309   33.0176 H   0  0  0  0  0  0  0  0  0  0  0  0
   59.1997   82.4533   34.3444 H   0  0  0  0  0  0  0  0  0  0  0  0
   62.5711   84.6528   32.3445 H   0  0  0  0  0  0  0  0  0  0  0  0
   62.5934   84.7694   34.1660 H   0  0  0  0  0  0  0  0  0  0  0  0
   64.8585   82.8638   33.8926 H   0  0  0  0  0  0  0  0  0  0  0  0
   64.4456   81.9612   32.3954 H   0  0  0  0  0  0  0  0  0  0  0  0
   64.4265   83.7574   32.3954 H   0  0  0  0  0  0  0  0  0  0  0  0
   62.8787   83.0940   35.4789 H   0  0  0  0  0  0  0  0  0  0  0  0
   61.6643   81.9112   34.8849 H   0  0  0  0  0  0  0  0  0  0  0  0
   63.4090   81.4838   34.8849 H   0  0  0  0  0  0  0  0  0  0  0  0
   59.4688   84.0178   30.7570 H   0  0  0  0  0  0  0  0  0  0  0  0
   61.1211   83.2148   30.8337 H   0  0  0  0  0  0  0  0  0  0  0  0
   54.0949   76.5601   30.2773 H   0  0  0  0  0  0  0  0  0  0  0  0
   54.2728   80.9883   26.8461 H   0  0  0  0  0  0  0  0  0  0  0  0
   53.0597   83.9900   24.2576 H   0  0  0  0  0  0  0  0  0  0  0  0
   52.0201   84.0012   26.6626 H   0  0  0  0  0  0  0  0  0  0  0  0
   52.6368   82.5210   27.0905 H   0  0  0  0  0  0  0  0  0  0  0  0
   54.1860   85.2604   26.6937 H   0  0  0  0  0  0  0  0  0  0  0  0
   54.6998   84.1676   27.8277 H   0  0  0  0  0  0  0  0  0  0  0  0
   55.5732   83.9896   25.0412 H   0  0  0  0  0  0  0  0  0  0  0  0
   55.4845   82.5120   25.7916 H   0  0  0  0  0  0  0  0  0  0  0  0
  1  2  1  0
  2  3  2  0
  3  4  1  0
  4  5  2  0
  5  6  1  0
  5  7  1  0
  7  8  2  0
  8  9  1  0
  9 10  2  0
 10 11  1  0
 11 12  1  0
 12 13  1  0
 13 14  1  0
 14 15  2  0
 15 16  1  0
 16 17  2  0
 17 18  1  0
 17 19  1  0
 19 20  1  0
 20 21  1  0
 21 22  1  0
 22 23  2  0
 22 24  1  0
 24 25  1  0
 25 26  1  0
 25 27  1  0
 21 28  1  0
 11 29  2  0
 29 30  1  0
 30 31  2  0
 31 32  1  0
  8 33  1  0
 33 34  2  0
 34 35  1  0
 35 36  1  0
 36 37  1  0
 37 38  1  0
 38 39  1  0
 35  2  1  0
 39 36  1  0
 34  4  1  0
 31  9  1  0
 18 13  2  0
 28 16  1  0
  1 40  1  0
  1 41  1  0
  1 42  1  0
  7 43  1  0
 12 44  1  0
 14 45  1  0
 15 46  1  0
 19 47  1  0
 19 48  1  0
 20 49  1  0
 20 50  1  0
 24 51  1  0
 24 52  1  0
 26 53  1  0
 26 54  1  0
 26 55  1  0
 27 56  1  0
 27 57  1  0
 27 58  1  0
 28 59  1  0
 28 60  1  0
 30 61  1  0
 33 62  1  0
 36 63  1  0
 37 64  1  0
 37 65  1  0
 38 66  1  0
 38 67  1  0
 39 68  1  0
 39 69  1  0
M  END
>  <meeko>  (1) 
{"is_sidechain": false}

>  <smiles>  (1) 
Cc1nc2c(F)cc(-c3nc(Nc4ccc5c(n4)CCN(C(=O)CN(C)C)C5)ncc3F)cc2n1C1CCC1

>  <vina_score>  (1) 
-8.704

>  <job_id>  (1) 
b6891ef36726c325

$$$$
