
     RDKit          3D

 40 42  0  0  0  0  0  0  0  0999 V2000
   61.7610   84.3590   32.8290 C   0  0  0  0  0  0  0  0  0  0  0  0
   60.3590   84.1920   33.0030 O   0  0  0  0  0  0  0  0  0  0  0  0
   59.7710   83.1880   32.2780 C   0  0  0  0  0  0  0  0  0  0  0  0
   59.6140   83.1520   30.8940 C   0  0  0  0  0  0  0  0  0  0  0  0
   58.9900   82.0520   30.2880 C   0  0  0  0  0  0  0  0  0  0  0  0
   58.5060   80.9790   31.0520 C   0  0  0  0  0  0  0  0  0  0  0  0
   57.8670   79.7660   30.4080 C   0  0  0  0  0  0  0  0  0  0  0  0
   58.5500   79.3500   29.1790 N   0  0  0  0  0  0  0  0  0  0  0  0
   57.8560   78.8900   28.1990 C   0  0  0  0  0  0  0  0  0  0  0  0
   56.4010   78.6000   28.1020 C   0  0  0  0  0  0  0  0  0  0  0  0
   55.9220   77.2930   28.6320 C   0  0  0  0  0  0  0  0  0  0  0  0
   56.6850   76.4820   29.1450 O   0  0  0  0  0  0  0  0  0  0  0  0
   54.5820   77.0530   28.5230 N   0  0  0  0  0  0  0  0  0  0  0  0
   53.6770   77.9220   28.0020 C   0  0  0  0  0  0  0  0  0  0  0  0
   52.4080   77.4140   28.0200 O   0  0  0  0  0  0  0  0  0  0  0  0
   54.0620   79.1350   27.5490 C   0  0  0  0  0  0  0  0  0  0  0  0
   53.1390   80.1080   26.9610 C   0  0  0  0  0  0  0  0  0  0  0  0
   53.5820   81.3170   26.5710 C   0  0  0  0  0  0  0  0  0  0  0  0
   54.9750   81.7180   26.7170 C   0  0  0  0  0  0  0  0  0  0  0  0
   55.5490   83.6260   26.1450 I   0  0  0  0  0  0  0  0  0  0  0  0
   55.8880   80.8610   27.2190 C   0  0  0  0  0  0  0  0  0  0  0  0
   55.5060   79.4990   27.6320 C   0  0  0  0  0  0  0  0  0  0  0  0
   58.6810   81.0140   32.4410 C   0  0  0  0  0  0  0  0  0  0  0  0
   59.3020   82.1080   33.0340 C   0  0  0  0  0  0  0  0  0  0  0  0
   59.4500   82.1070   34.3950 O   0  0  0  0  0  0  0  0  0  0  0  0
   62.2483   84.4170   33.8135 H   0  0  0  0  0  0  0  0  0  0  0  0
   62.1656   83.5027   32.2695 H   0  0  0  0  0  0  0  0  0  0  0  0
   61.9532   85.2864   32.2695 H   0  0  0  0  0  0  0  0  0  0  0  0
   59.9794   83.9861   30.2769 H   0  0  0  0  0  0  0  0  0  0  0  0
   58.8779   82.0299   29.1940 H   0  0  0  0  0  0  0  0  0  0  0  0
   57.8942   78.9321   31.1248 H   0  0  0  0  0  0  0  0  0  0  0  0
   56.8359   80.0384   30.1383 H   0  0  0  0  0  0  0  0  0  0  0  0
   58.4312   78.6769   27.2859 H   0  0  0  0  0  0  0  0  0  0  0  0
   54.2430   76.1630   28.8650 H   0  0  0  0  0  0  0  0  0  0  0  0
   52.2130   77.0550   28.8970 H   0  0  0  0  0  0  0  0  0  0  0  0
   52.0771   79.8488   26.8374 H   0  0  0  0  0  0  0  0  0  0  0  0
   52.8684   82.0266   26.1269 H   0  0  0  0  0  0  0  0  0  0  0  0
   56.9344   81.1841   27.3217 H   0  0  0  0  0  0  0  0  0  0  0  0
   58.3278   80.1775   33.0620 H   0  0  0  0  0  0  0  0  0  0  0  0
   60.1120   81.4100   34.5710 H   0  0  0  0  0  0  0  0  0  0  0  0
  1  2  1  0
  2  3  1  0
  3  4  1  0
  4  5  2  0
  5  6  1  0
  6  7  1  0
  7  8  1  0
  8  9  2  3
  9 10  1  0
 10 11  1  0
 11 12  2  0
 11 13  1  0
 13 14  1  0
 14 15  1  0
 14 16  2  0
 16 17  1  0
 17 18  2  0
 18 19  1  0
 19 20  1  0
 19 21  2  0
 21 22  1  0
  6 23  2  0
 23 24  1  0
 24 25  1  0
 24  3  2  0
 22 10  2  0
 22 16  1  0
  1 26  1  0
  1 27  1  0
  1 28  1  0
  4 29  1  0
  5 30  1  0
  7 31  1  0
  7 32  1  0
  9 33  1  0
 13 34  1  0
 15 35  1  0
 17 36  1  0
 18 37  1  0
 21 38  1  0
 23 39  1  0
 25 40  1  0
M  END
>  <meeko>  (1) 
{"is_sidechain": false}

>  <smiles>  (1) 
COc1ccc(CN=Cc2c(=O)[nH]c(O)c3ccc(I)cc23)cc1O

>  <vina_score>  (1) 
-7.226

>  <job_id>  (1) 
b68d6853bca5f609

$$$$
