
     RDKit          3D

 46 49  0  0  0  0  0  0  0  0999 V2000
   58.4300   78.5980   28.0200 C   0  0  0  0  0  0  0  0  0  0  0  0
   57.8390   79.1460   29.2970 C   0  0  0  0  0  0  0  0  0  0  0  0
   56.5400   79.0340   29.6360 C   0  0  0  0  0  0  0  0  0  0  0  0
   55.5060   78.3580   28.9010 C   0  0  0  0  0  0  0  0  0  0  0  0
   55.0070   77.0070   29.3270 C   0  0  0  0  0  0  0  0  0  0  0  0
   55.4100   76.3500   30.2700 O   0  0  0  0  0  0  0  0  0  0  0  0
   54.0060   76.6620   28.4490 N   0  0  0  0  0  0  0  0  0  0  0  0
   53.8380   77.6320   27.5240 C   0  0  0  0  0  0  0  0  0  0  0  0
   52.9510   77.6950   26.5290 C   0  0  0  0  0  0  0  0  0  0  0  0
   52.9350   78.8610   25.6560 C   0  0  0  0  0  0  0  0  0  0  0  0
   53.8150   79.8810   25.7800 C   0  0  0  0  0  0  0  0  0  0  0  0
   53.8360   80.9870   24.9480 N   0  0  0  0  0  0  0  0  0  0  0  0
   54.8000   81.9580   25.0320 C   0  0  0  0  0  0  0  0  0  0  0  0
   55.7700   81.9150   25.9570 C   0  0  0  0  0  0  0  0  0  0  0  0
   55.7920   80.8050   26.8990 C   0  0  0  0  0  0  0  0  0  0  0  0
   54.8600   79.8250   26.8660 C   0  0  0  0  0  0  0  0  0  0  0  0
   54.8120   78.6810   27.7880 C   0  0  0  0  0  0  0  0  0  0  0  0
   58.6780   79.8660   30.1180 N   0  0  0  0  0  0  0  0  0  0  0  0
   58.1710   80.2530   31.1930 N   0  0  0  0  0  0  0  0  0  0  0  0
   59.1220   80.9690   31.9390 C   0  0  0  0  0  0  0  0  0  0  0  0
   60.1820   81.6340   31.3080 C   0  0  0  0  0  0  0  0  0  0  0  0
   61.1380   82.3260   32.0560 C   0  0  0  0  0  0  0  0  0  0  0  0
   61.0270   82.3500   33.4490 C   0  0  0  0  0  0  0  0  0  0  0  0
   62.2340   83.2210   34.4160 S   0  0  0  0  0  0  0  0  0  0  0  0
   63.4350   82.0530   34.5850 N   0  0  0  0  0  0  0  0  0  0  0  0
   61.6990   83.4280   35.7410 O   0  0  0  0  0  0  0  0  0  0  0  0
   62.7670   84.2960   33.6140 O   0  0  0  0  0  0  0  0  0  0  0  0
   59.9920   81.6710   34.0970 C   0  0  0  0  0  0  0  0  0  0  0  0
   59.0430   80.9820   33.3380 C   0  0  0  0  0  0  0  0  0  0  0  0
   59.2166   77.8686   28.2635 H   0  0  0  0  0  0  0  0  0  0  0  0
   57.6413   78.1045   27.4332 H   0  0  0  0  0  0  0  0  0  0  0  0
   58.8626   79.4217   27.4332 H   0  0  0  0  0  0  0  0  0  0  0  0
   56.2372   79.5125   30.5791 H   0  0  0  0  0  0  0  0  0  0  0  0
   53.4840   75.8030   28.5230 H   0  0  0  0  0  0  0  0  0  0  0  0
   52.2376   76.8730   26.3693 H   0  0  0  0  0  0  0  0  0  0  0  0
   52.1752   78.9144   24.8623 H   0  0  0  0  0  0  0  0  0  0  0  0
   53.1670   81.0310   24.1900 H   0  0  0  0  0  0  0  0  0  0  0  0
   54.7772   82.7964   24.3203 H   0  0  0  0  0  0  0  0  0  0  0  0
   56.5351   82.7040   26.0032 H   0  0  0  0  0  0  0  0  0  0  0  0
   56.5875   80.7621   27.6576 H   0  0  0  0  0  0  0  0  0  0  0  0
   60.2623   81.6109   30.2112 H   0  0  0  0  0  0  0  0  0  0  0  0
   61.9679   82.8456   31.5546 H   0  0  0  0  0  0  0  0  0  0  0  0
   63.1290   81.1960   34.1210 H   0  0  0  0  0  0  0  0  0  0  0  0
   64.3490   82.3580   34.2540 H   0  0  0  0  0  0  0  0  0  0  0  0
   59.9250   81.6789   35.1949 H   0  0  0  0  0  0  0  0  0  0  0  0
   58.2265   80.4450   33.8430 H   0  0  0  0  0  0  0  0  0  0  0  0
  1  2  1  0
  2  3  2  3
  3  4  1  0
  4  5  1  0
  5  6  2  0
  5  7  1  0
  7  8  1  0
  8  9  2  0
  9 10  1  0
 10 11  2  0
 11 12  1  0
 12 13  1  0
 13 14  2  0
 14 15  1  0
 15 16  2  0
 16 17  1  0
  2 18  1  0
 18 19  2  3
 19 20  1  0
 20 21  1  0
 21 22  2  0
 22 23  1  0
 23 24  1  0
 24 25  1  0
 24 26  2  0
 24 27  2  0
 23 28  2  0
 28 29  1  0
 17  4  2  0
 29 20  2  0
 17  8  1  0
 16 11  1  0
  1 30  1  0
  1 31  1  0
  1 32  1  0
  3 33  1  0
  7 34  1  0
  9 35  1  0
 10 36  1  0
 12 37  1  0
 13 38  1  0
 14 39  1  0
 15 40  1  0
 21 41  1  0
 22 42  1  0
 25 43  1  0
 25 44  1  0
 28 45  1  0
 29 46  1  0
M  END
>  <meeko>  (1) 
{"is_sidechain": false}

>  <smiles>  (1) 
CC(=Cc1c(=O)[nH]c2ccc3[nH]cccc3c12)N=Nc1ccc(S(N)(=O)=O)cc1

>  <vina_score>  (1) 
-8.521

>  <job_id>  (1) 
b6d8822feac5f4e4

$$$$
