
     RDKit          3D

 37 38  0  0  0  0  0  0  0  0999 V2000
   59.1550   80.4390   31.8230 C   0  0  0  0  0  0  0  0  0  0  0  0
   58.5250   80.0160   30.5270 C   0  0  0  0  0  0  0  0  0  0  0  0
   58.9540   80.5690   29.3160 C   0  0  0  0  0  0  0  0  0  0  0  0
   58.3340   80.2180   28.1160 C   0  0  0  0  0  0  0  0  0  0  0  0
   57.2780   79.3080   28.1150 C   0  0  0  0  0  0  0  0  0  0  0  0
   56.8420   78.7410   29.3170 C   0  0  0  0  0  0  0  0  0  0  0  0
   55.7100   77.7710   29.2790 C   0  0  0  0  0  0  0  0  0  0  0  0
   55.8150   76.7100   29.8810 O   0  0  0  0  0  0  0  0  0  0  0  0
   54.5670   78.2360   28.6570 N   0  0  0  0  0  0  0  0  0  0  0  0
   53.6570   77.4180   28.0080 C   0  0  0  0  0  0  0  0  0  0  0  0
   53.5500   76.2050   28.1600 O   0  0  0  0  0  0  0  0  0  0  0  0
   52.6810   78.1740   27.1150 C   0  0  0  0  0  0  0  0  0  0  0  0
   53.2400   79.4580   26.5330 C   0  0  0  0  0  0  0  0  0  0  0  0
   53.3100   80.5970   27.3560 C   0  0  0  0  0  0  0  0  0  0  0  0
   53.8680   81.7840   26.8860 C   0  0  0  0  0  0  0  0  0  0  0  0
   54.3630   81.8530   25.5890 C   0  0  0  0  0  0  0  0  0  0  0  0
   54.2910   80.7370   24.7560 C   0  0  0  0  0  0  0  0  0  0  0  0
   53.7220   79.5350   25.2080 C   0  0  0  0  0  0  0  0  0  0  0  0
   53.6850   78.3570   24.2700 C   0  0  0  0  0  0  0  0  0  0  0  0
   57.4530   79.1130   30.5240 C   0  0  0  0  0  0  0  0  0  0  0  0
   58.5658   80.0434   32.6634 H   0  0  0  0  0  0  0  0  0  0  0  0
   60.1810   80.0461   31.8774 H   0  0  0  0  0  0  0  0  0  0  0  0
   59.1797   81.5374   31.8774 H   0  0  0  0  0  0  0  0  0  0  0  0
   59.7874   81.2869   29.3094 H   0  0  0  0  0  0  0  0  0  0  0  0
   58.6791   80.6600   27.1697 H   0  0  0  0  0  0  0  0  0  0  0  0
   56.7875   79.0358   27.1688 H   0  0  0  0  0  0  0  0  0  0  0  0
   54.5830   79.2000   28.3570 H   0  0  0  0  0  0  0  0  0  0  0  0
   52.3925   77.5147   26.2831 H   0  0  0  0  0  0  0  0  0  0  0  0
   51.8275   78.4584   27.7480 H   0  0  0  0  0  0  0  0  0  0  0  0
   52.9194   80.5498   28.3832 H   0  0  0  0  0  0  0  0  0  0  0  0
   53.9168   82.6663   27.5412 H   0  0  0  0  0  0  0  0  0  0  0  0
   54.8112   82.7873   25.2199 H   0  0  0  0  0  0  0  0  0  0  0  0
   54.6852   80.7988   23.7309 H   0  0  0  0  0  0  0  0  0  0  0  0
   53.6557   77.4247   24.8531 H   0  0  0  0  0  0  0  0  0  0  0  0
   52.7884   78.4212   23.6359 H   0  0  0  0  0  0  0  0  0  0  0  0
   54.5838   78.3648   23.6359 H   0  0  0  0  0  0  0  0  0  0  0  0
   57.0886   78.6936   31.4734 H   0  0  0  0  0  0  0  0  0  0  0  0
  1  2  1  0
  2  3  2  0
  3  4  1  0
  4  5  2  0
  5  6  1  0
  6  7  1  0
  7  8  2  0
  7  9  1  0
  9 10  1  0
 10 11  2  0
 10 12  1  0
 12 13  1  0
 13 14  2  0
 14 15  1  0
 15 16  2  0
 16 17  1  0
 17 18  2  0
 18 19  1  0
  6 20  2  0
 20  2  1  0
 18 13  1  0
  1 21  1  0
  1 22  1  0
  1 23  1  0
  3 24  1  0
  4 25  1  0
  5 26  1  0
  9 27  1  0
 12 28  1  0
 12 29  1  0
 14 30  1  0
 15 31  1  0
 16 32  1  0
 17 33  1  0
 19 34  1  0
 19 35  1  0
 19 36  1  0
 20 37  1  0
M  END
>  <meeko>  (1) 
{"is_sidechain": false}

>  <smiles>  (1) 
Cc1cccc(C(=O)NC(=O)Cc2ccccc2C)c1

>  <vina_score>  (1) 
-8.046

>  <job_id>  (1) 
b6e5c956a3080d8f

$$$$
