
     RDKit          3D

 40 42  0  0  0  0  0  0  0  0999 V2000
   51.2400   81.1560   22.2980 C   0  0  0  0  0  0  0  0  0  0  0  0
   52.4700   80.9070   23.0450 N   0  0  0  0  0  0  0  0  0  0  0  0
   52.5200   79.5050   23.5200 C   0  0  0  0  0  0  0  0  0  0  0  0
   53.7780   79.2060   24.3710 C   0  0  0  0  0  0  0  0  0  0  0  0
   53.8430   80.1480   25.5080 N   0  0  0  0  0  0  0  0  0  0  0  0
   54.8060   79.8380   26.4810 C   0  0  0  0  0  0  0  0  0  0  0  0
   55.9800   80.6080   26.4360 C   0  0  0  0  0  0  0  0  0  0  0  0
   57.0270   80.4090   27.3430 C   0  0  0  0  0  0  0  0  0  0  0  0
   56.9400   79.4310   28.3360 C   0  0  0  0  0  0  0  0  0  0  0  0
   58.0310   79.2370   29.2000 N   0  0  0  0  0  0  0  0  0  0  0  0
   58.7480   80.1240   30.0240 C   0  0  0  0  0  0  0  0  0  0  0  0
   58.5340   80.2320   31.3970 C   0  0  0  0  0  0  0  0  0  0  0  0
   59.2640   81.1620   32.1210 C   0  0  0  0  0  0  0  0  0  0  0  0
   60.1770   81.9920   31.5760 N   0  0  0  0  0  0  0  0  0  0  0  0
   60.3640   81.8850   30.2450 C   0  0  0  0  0  0  0  0  0  0  0  0
   59.6850   80.9820   29.4420 C   0  0  0  0  0  0  0  0  0  0  0  0
   55.7780   78.6570   28.3890 C   0  0  0  0  0  0  0  0  0  0  0  0
   54.7230   78.8520   27.4820 C   0  0  0  0  0  0  0  0  0  0  0  0
   53.3500   77.8170   27.6830 Cl  0  0  0  0  0  0  0  0  0  0  0  0
   53.8320   81.5580   25.0660 C   0  0  0  0  0  0  0  0  0  0  0  0
   52.5720   81.8230   24.2060 C   0  0  0  0  0  0  0  0  0  0  0  0
   50.4113   81.3238   23.0016 H   0  0  0  0  0  0  0  0  0  0  0  0
   51.3694   82.0462   21.6649 H   0  0  0  0  0  0  0  0  0  0  0  0
   51.0129   80.2856   21.6649 H   0  0  0  0  0  0  0  0  0  0  0  0
   51.6269   79.3087   24.1315 H   0  0  0  0  0  0  0  0  0  0  0  0
   52.5572   78.8553   22.6331 H   0  0  0  0  0  0  0  0  0  0  0  0
   53.7257   78.1754   24.7520 H   0  0  0  0  0  0  0  0  0  0  0  0
   54.6768   79.3231   23.7478 H   0  0  0  0  0  0  0  0  0  0  0  0
   56.0790   81.3884   25.6671 H   0  0  0  0  0  0  0  0  0  0  0  0
   57.9311   81.0316   27.2728 H   0  0  0  0  0  0  0  0  0  0  0  0
   58.3270   78.2700   29.2800 H   0  0  0  0  0  0  0  0  0  0  0  0
   57.7964   79.5885   31.8990 H   0  0  0  0  0  0  0  0  0  0  0  0
   59.0881   81.2270   33.2049 H   0  0  0  0  0  0  0  0  0  0  0  0
   61.0974   82.5526   29.7691 H   0  0  0  0  0  0  0  0  0  0  0  0
   59.8812   80.9413   28.3604 H   0  0  0  0  0  0  0  0  0  0  0  0
   55.6871   77.8767   29.1589 H   0  0  0  0  0  0  0  0  0  0  0  0
   53.8197   82.2175   25.9463 H   0  0  0  0  0  0  0  0  0  0  0  0
   54.7322   81.7601   24.4670 H   0  0  0  0  0  0  0  0  0  0  0  0
   51.6808   81.6918   24.8373 H   0  0  0  0  0  0  0  0  0  0  0  0
   52.6456   82.8486   23.8152 H   0  0  0  0  0  0  0  0  0  0  0  0
  1  2  1  0
  2  3  1  0
  3  4  1  0
  4  5  1  0
  5  6  1  0
  6  7  1  0
  7  8  2  0
  8  9  1  0
  9 10  1  0
 10 11  1  0
 11 12  2  0
 12 13  1  0
 13 14  2  0
 14 15  1  0
 15 16  2  0
  9 17  2  0
 17 18  1  0
 18 19  1  0
  5 20  1  0
 20 21  1  0
 21  2  1  0
 18  6  2  0
 16 11  1  0
  1 22  1  0
  1 23  1  0
  1 24  1  0
  3 25  1  0
  3 26  1  0
  4 27  1  0
  4 28  1  0
  7 29  1  0
  8 30  1  0
 10 31  1  0
 12 32  1  0
 13 33  1  0
 15 34  1  0
 16 35  1  0
 17 36  1  0
 20 37  1  0
 20 38  1  0
 21 39  1  0
 21 40  1  0
M  END
>  <meeko>  (1) 
{"is_sidechain": false}

>  <smiles>  (1) 
CN1CCN(c2ccc(Nc3ccncc3)cc2Cl)CC1

>  <vina_score>  (1) 
-7.721

>  <job_id>  (1) 
b76bab144017a64b

$$$$
