
     RDKit          3D

 36 37  0  0  0  0  0  0  0  0999 V2000
   54.0160   76.5550   29.0150 C   0  0  0  0  0  0  0  0  0  0  0  0
   54.5740   77.7660   28.3270 C   0  0  0  0  0  0  0  0  0  0  0  0
   53.9100   78.3220   27.2230 C   0  0  0  0  0  0  0  0  0  0  0  0
   54.4290   79.4300   26.5270 C   0  0  0  0  0  0  0  0  0  0  0  0
   53.7220   79.9950   25.3660 C   0  0  0  0  0  0  0  0  0  0  0  0
   53.4360   81.3700   25.2910 C   0  0  0  0  0  0  0  0  0  0  0  0
   52.7640   81.9100   24.1900 C   0  0  0  0  0  0  0  0  0  0  0  0
   52.3770   81.0720   23.1430 C   0  0  0  0  0  0  0  0  0  0  0  0
   51.4980   81.7420   21.7630 S   0  0  0  0  0  0  0  0  0  0  0  0
   49.9080   81.3570   22.1430 N   0  0  0  0  0  0  0  0  0  0  0  0
   51.5790   83.1840   21.8030 O   0  0  0  0  0  0  0  0  0  0  0  0
   51.8190   80.9820   20.5780 O   0  0  0  0  0  0  0  0  0  0  0  0
   52.6380   79.7030   23.1960 C   0  0  0  0  0  0  0  0  0  0  0  0
   53.3100   79.1720   24.3010 C   0  0  0  0  0  0  0  0  0  0  0  0
   55.6450   79.9760   26.9650 C   0  0  0  0  0  0  0  0  0  0  0  0
   56.3100   79.4240   28.0650 C   0  0  0  0  0  0  0  0  0  0  0  0
   57.8600   80.1160   28.5880 S   0  0  0  0  0  0  0  0  0  0  0  0
   57.8460   79.8570   30.3430 C   0  0  0  0  0  0  0  0  0  0  0  0
   58.9170   79.3020   28.0200 O   0  0  0  0  0  0  0  0  0  0  0  0
   57.8100   81.5440   28.3450 O   0  0  0  0  0  0  0  0  0  0  0  0
   55.7930   78.3140   28.7350 C   0  0  0  0  0  0  0  0  0  0  0  0
   54.0786   76.6910   30.1048 H   0  0  0  0  0  0  0  0  0  0  0  0
   52.9644   76.4190   28.7223 H   0  0  0  0  0  0  0  0  0  0  0  0
   54.5958   75.6672   28.7223 H   0  0  0  0  0  0  0  0  0  0  0  0
   52.9584   77.8802   26.8926 H   0  0  0  0  0  0  0  0  0  0  0  0
   53.7463   82.0322   26.1127 H   0  0  0  0  0  0  0  0  0  0  0  0
   52.5421   82.9866   24.1494 H   0  0  0  0  0  0  0  0  0  0  0  0
   49.8760   80.4670   22.6400 H   0  0  0  0  0  0  0  0  0  0  0  0
   49.4750   82.1290   22.6500 H   0  0  0  0  0  0  0  0  0  0  0  0
   52.3174   79.0457   22.3743 H   0  0  0  0  0  0  0  0  0  0  0  0
   53.5203   78.0929   24.3388 H   0  0  0  0  0  0  0  0  0  0  0  0
   56.0771   80.8415   26.4414 H   0  0  0  0  0  0  0  0  0  0  0  0
   57.8985   80.8279   30.8573 H   0  0  0  0  0  0  0  0  0  0  0  0
   56.9186   79.3397   30.6299 H   0  0  0  0  0  0  0  0  0  0  0  0
   58.7123   79.2428   30.6299 H   0  0  0  0  0  0  0  0  0  0  0  0
   56.3423   77.8729   29.5798 H   0  0  0  0  0  0  0  0  0  0  0  0
  1  2  1  0
  2  3  1  0
  3  4  2  0
  4  5  1  0
  5  6  1  0
  6  7  2  0
  7  8  1  0
  8  9  1  0
  9 10  1  0
  9 11  2  0
  9 12  2  0
  8 13  2  0
 13 14  1  0
  4 15  1  0
 15 16  2  0
 16 17  1  0
 17 18  1  0
 17 19  2  0
 17 20  2  0
 16 21  1  0
 21  2  2  0
 14  5  2  0
  1 22  1  0
  1 23  1  0
  1 24  1  0
  3 25  1  0
  6 26  1  0
  7 27  1  0
 10 28  1  0
 10 29  1  0
 13 30  1  0
 14 31  1  0
 15 32  1  0
 18 33  1  0
 18 34  1  0
 18 35  1  0
 21 36  1  0
M  END
>  <meeko>  (1) 
{"is_sidechain": false}

>  <smiles>  (1) 
Cc1cc(-c2ccc(S(N)(=O)=O)cc2)cc(S(C)(=O)=O)c1

>  <vina_score>  (1) 
-7.971

>  <job_id>  (1) 
b78ec2fb1816cf25

$$$$
