
     RDKit          3D

 65 68  0  0  0  0  0  0  0  0999 V2000
   52.5970   81.7320   21.1860 C   0  0  0  0  0  0  0  0  0  0  0  0
   51.6490   81.2980   22.2730 C   0  0  0  0  0  0  0  0  0  0  0  0
   50.4330   81.4260   22.1430 O   0  0  0  0  0  0  0  0  0  0  0  0
   52.2060   80.7050   23.5240 C   0  0  0  0  0  0  0  0  0  0  0  0
   52.9350   79.5120   23.5270 C   0  0  0  0  0  0  0  0  0  0  0  0
   53.4390   78.9920   24.7280 C   0  0  0  0  0  0  0  0  0  0  0  0
   53.2220   79.6540   25.9380 C   0  0  0  0  0  0  0  0  0  0  0  0
   53.6920   79.2000   27.1850 N   0  0  0  0  0  0  0  0  0  0  0  0
   53.4840   77.9790   27.7840 C   0  0  0  0  0  0  0  0  0  0  0  0
   52.8260   77.0550   27.3030 O   0  0  0  0  0  0  0  0  0  0  0  0
   54.1230   77.7690   29.1450 C   0  0  0  0  0  0  0  0  0  0  0  0
   55.5610   77.3180   29.2270 C   0  0  0  0  0  0  0  0  0  0  0  0
   55.8790   76.1320   29.3220 O   0  0  0  0  0  0  0  0  0  0  0  0
   56.6400   78.3540   29.1920 C   0  0  0  0  0  0  0  0  0  0  0  0
   57.1730   78.8450   27.9980 C   0  0  0  0  0  0  0  0  0  0  0  0
   58.1850   79.8170   28.0200 C   0  0  0  0  0  0  0  0  0  0  0  0
   58.6850   80.3250   29.2230 C   0  0  0  0  0  0  0  0  0  0  0  0
   59.6990   81.2840   29.3060 N   0  0  0  0  0  0  0  0  0  0  0  0
   59.8520   82.4750   30.0080 C   0  0  0  0  0  0  0  0  0  0  0  0
   58.8060   83.2560   30.3250 N   0  0  0  0  0  0  0  0  0  0  0  0
   59.0600   84.3840   31.0200 C   0  0  0  0  0  0  0  0  0  0  0  0
   60.3180   84.7650   31.4010 C   0  0  0  0  0  0  0  0  0  0  0  0
   60.5190   85.8930   32.0930 F   0  0  0  0  0  0  0  0  0  0  0  0
   61.3360   83.9210   31.0200 C   0  0  0  0  0  0  0  0  0  0  0  0
   62.7250   84.1670   31.3780 C   0  0  0  0  0  0  0  0  0  0  0  0
   63.6950   84.8030   30.6250 C   0  0  0  0  0  0  0  0  0  0  0  0
   64.8820   84.8830   31.2890 N   0  0  0  0  0  0  0  0  0  0  0  0
   64.6800   84.2980   32.4490 C   0  0  0  0  0  0  0  0  0  0  0  0
   65.7100   84.1730   33.5140 C   0  0  0  0  0  0  0  0  0  0  0  0
   63.3850   83.8050   32.5430 N   0  0  0  0  0  0  0  0  0  0  0  0
   62.8980   83.0060   33.6680 C   0  0  0  0  0  0  0  0  0  0  0  0
   62.5180   81.5660   33.3170 C   0  0  0  0  0  0  0  0  0  0  0  0
   61.8060   83.7190   34.4630 C   0  0  0  0  0  0  0  0  0  0  0  0
   61.1210   82.7770   30.3340 N   0  0  0  0  0  0  0  0  0  0  0  0
   58.1430   79.8190   30.4140 C   0  0  0  0  0  0  0  0  0  0  0  0
   57.1330   78.8490   30.4030 C   0  0  0  0  0  0  0  0  0  0  0  0
   52.4920   80.8480   25.9310 C   0  0  0  0  0  0  0  0  0  0  0  0
   51.9870   81.3710   24.7350 C   0  0  0  0  0  0  0  0  0  0  0  0
   53.5083   82.1492   21.6393 H   0  0  0  0  0  0  0  0  0  0  0  0
   52.8614   80.8652   20.5624 H   0  0  0  0  0  0  0  0  0  0  0  0
   52.1137   82.4985   20.5624 H   0  0  0  0  0  0  0  0  0  0  0  0
   53.1143   78.9782   22.5820 H   0  0  0  0  0  0  0  0  0  0  0  0
   54.0113   78.0527   24.7166 H   0  0  0  0  0  0  0  0  0  0  0  0
   54.2610   79.8660   27.7120 H   0  0  0  0  0  0  0  0  0  0  0  0
   54.0567   78.7271   29.6813 H   0  0  0  0  0  0  0  0  0  0  0  0
   53.5614   76.9227   29.5673 H   0  0  0  0  0  0  0  0  0  0  0  0
   56.7975   78.4678   27.0353 H   0  0  0  0  0  0  0  0  0  0  0  0
   58.5944   80.1879   27.0688 H   0  0  0  0  0  0  0  0  0  0  0  0
   60.5580   81.0830   28.8160 H   0  0  0  0  0  0  0  0  0  0  0  0
   58.2131   85.0302   31.2943 H   0  0  0  0  0  0  0  0  0  0  0  0
   63.5282   85.1970   29.6116 H   0  0  0  0  0  0  0  0  0  0  0  0
   65.2266   84.2317   34.5003 H   0  0  0  0  0  0  0  0  0  0  0  0
   66.2245   83.2058   33.4148 H   0  0  0  0  0  0  0  0  0  0  0  0
   66.4409   84.9890   33.4148 H   0  0  0  0  0  0  0  0  0  0  0  0
   63.7712   82.9066   34.3296 H   0  0  0  0  0  0  0  0  0  0  0  0
   62.3662   80.9909   34.2423 H   0  0  0  0  0  0  0  0  0  0  0  0
   61.5889   81.5651   32.7282 H   0  0  0  0  0  0  0  0  0  0  0  0
   63.3257   81.1068   32.7282 H   0  0  0  0  0  0  0  0  0  0  0  0
   61.9958   83.5950   35.5394 H   0  0  0  0  0  0  0  0  0  0  0  0
   61.8089   84.7898   34.2111 H   0  0  0  0  0  0  0  0  0  0  0  0
   60.8268   83.2857   34.2111 H   0  0  0  0  0  0  0  0  0  0  0  0
   58.5197   80.1924   31.3777 H   0  0  0  0  0  0  0  0  0  0  0  0
   56.7249   78.4741   31.3532 H   0  0  0  0  0  0  0  0  0  0  0  0
   52.3131   81.3815   26.8762 H   0  0  0  0  0  0  0  0  0  0  0  0
   51.4150   82.3105   24.7471 H   0  0  0  0  0  0  0  0  0  0  0  0
  1  2  1  0
  2  3  2  0
  2  4  1  0
  4  5  1  0
  5  6  2  0
  6  7  1  0
  7  8  1  0
  8  9  1  0
  9 10  2  0
  9 11  1  0
 11 12  1  0
 12 13  2  0
 12 14  1  0
 14 15  1  0
 15 16  2  0
 16 17  1  0
 17 18  1  0
 18 19  1  0
 19 20  2  0
 20 21  1  0
 21 22  2  0
 22 23  1  0
 22 24  1  0
 24 25  1  0
 25 26  2  0
 26 27  1  0
 27 28  2  0
 28 29  1  0
 28 30  1  0
 30 31  1  0
 31 32  1  0
 31 33  1  0
 24 34  2  0
 17 35  2  0
 35 36  1  0
  7 37  2  0
 37 38  1  0
 38  4  2  0
 36 14  2  0
 34 19  1  0
 30 25  1  0
  1 39  1  0
  1 40  1  0
  1 41  1  0
  5 42  1  0
  6 43  1  0
  8 44  1  0
 11 45  1  0
 11 46  1  0
 15 47  1  0
 16 48  1  0
 18 49  1  0
 21 50  1  0
 26 51  1  0
 29 52  1  0
 29 53  1  0
 29 54  1  0
 31 55  1  0
 32 56  1  0
 32 57  1  0
 32 58  1  0
 33 59  1  0
 33 60  1  0
 33 61  1  0
 35 62  1  0
 36 63  1  0
 37 64  1  0
 38 65  1  0
M  END
>  <meeko>  (1) 
{"is_sidechain": false}

>  <smiles>  (1) 
CC(=O)c1ccc(NC(=O)CC(=O)c2ccc(Nc3ncc(F)c(-c4cnc(C)n4C(C)C)n3)cc2)cc1

>  <vina_score>  (1) 
-9.183

>  <job_id>  (1) 
b78e6c6e86d13aff

$$$$
