
     RDKit          3D

 62 66  0  0  0  0  0  0  0  0999 V2000
   53.2930   76.7010   28.3950 C   0  0  0  0  0  0  0  0  0  0  0  0
   54.3250   77.7230   28.3940 N   0  0  0  0  0  0  0  0  0  0  0  0
   53.9400   79.0190   27.8510 C   0  0  0  0  0  0  0  0  0  0  0  0
   55.4690   77.4960   29.1580 C   0  0  0  0  0  0  0  0  0  0  0  0
   55.6150   76.5230   29.8950 O   0  0  0  0  0  0  0  0  0  0  0  0
   56.5930   78.4540   29.0680 C   0  0  0  0  0  0  0  0  0  0  0  0
   57.1350   78.7430   27.8170 C   0  0  0  0  0  0  0  0  0  0  0  0
   58.1850   79.6510   27.7200 C   0  0  0  0  0  0  0  0  0  0  0  0
   58.6710   80.2800   28.8720 C   0  0  0  0  0  0  0  0  0  0  0  0
   58.1130   80.0340   30.1420 C   0  0  0  0  0  0  0  0  0  0  0  0
   58.6340   80.7260   31.3370 C   0  0  0  0  0  0  0  0  0  0  0  0
   57.9320   80.8220   32.5370 C   0  0  0  0  0  0  0  0  0  0  0  0
   58.4110   81.4440   33.6450 N   0  0  0  0  0  0  0  0  0  0  0  0
   59.6420   81.9820   33.5320 C   0  0  0  0  0  0  0  0  0  0  0  0
   60.0960   82.6850   34.6490 N   0  0  0  0  0  0  0  0  0  0  0  0
   60.3590   81.9110   32.3230 C   0  0  0  0  0  0  0  0  0  0  0  0
   61.7320   82.4180   32.2030 C   0  0  0  0  0  0  0  0  0  0  0  0
   62.8030   81.8110   32.6960 N   0  0  0  0  0  0  0  0  0  0  0  0
   63.8820   82.5520   32.2890 C   0  0  0  0  0  0  0  0  0  0  0  0
   65.2430   82.3140   32.5200 C   0  0  0  0  0  0  0  0  0  0  0  0
   66.1780   83.1950   31.9790 C   0  0  0  0  0  0  0  0  0  0  0  0
   65.7610   84.2910   31.2220 C   0  0  0  0  0  0  0  0  0  0  0  0
   64.3980   84.5710   30.9820 C   0  0  0  0  0  0  0  0  0  0  0  0
   63.9740   85.6460   30.1980 N   0  0  0  0  0  0  0  0  0  0  0  0
   64.5600   85.6560   28.8370 C   0  0  0  0  0  0  0  0  0  0  0  0
   65.4500   86.8960   28.5970 C   0  0  0  0  0  0  0  0  0  0  0  0
   64.7760   88.1920   28.8140 N   0  0  0  0  0  0  0  0  0  0  0  0
   63.7490   88.0960   29.8690 C   0  0  0  0  0  0  0  0  0  0  0  0
   63.9710   86.9540   30.8870 C   0  0  0  0  0  0  0  0  0  0  0  0
   63.4850   83.6590   31.5470 C   0  0  0  0  0  0  0  0  0  0  0  0
   62.1060   83.5820   31.5570 N   0  0  0  0  0  0  0  0  0  0  0  0
   61.2160   84.5840   31.0200 C   0  0  0  0  0  0  0  0  0  0  0  0
   59.8660   81.2820   31.2170 N   0  0  0  0  0  0  0  0  0  0  0  0
   57.0600   79.1060   30.2190 C   0  0  0  0  0  0  0  0  0  0  0  0
   53.0330   76.4435   29.4323 H   0  0  0  0  0  0  0  0  0  0  0  0
   52.4002   77.0809   27.8767 H   0  0  0  0  0  0  0  0  0  0  0  0
   53.6642   75.8046   27.8767 H   0  0  0  0  0  0  0  0  0  0  0  0
   53.7330   79.7157   28.6767 H   0  0  0  0  0  0  0  0  0  0  0  0
   54.7591   79.4157   27.2332 H   0  0  0  0  0  0  0  0  0  0  0  0
   53.0372   78.9041   27.2332 H   0  0  0  0  0  0  0  0  0  0  0  0
   56.7362   78.2575   26.9141 H   0  0  0  0  0  0  0  0  0  0  0  0
   58.6321   79.8740   26.7400 H   0  0  0  0  0  0  0  0  0  0  0  0
   59.5107   80.9850   28.7835 H   0  0  0  0  0  0  0  0  0  0  0  0
   56.9317   80.3675   32.5897 H   0  0  0  0  0  0  0  0  0  0  0  0
   60.7870   83.3680   34.3580 H   0  0  0  0  0  0  0  0  0  0  0  0
   59.3140   83.0700   35.1800 H   0  0  0  0  0  0  0  0  0  0  0  0
   65.5676   81.4488   33.1167 H   0  0  0  0  0  0  0  0  0  0  0  0
   67.2513   83.0254   32.1498 H   0  0  0  0  0  0  0  0  0  0  0  0
   66.5223   84.9614   30.7967 H   0  0  0  0  0  0  0  0  0  0  0  0
   65.1708   84.7504   28.7070 H   0  0  0  0  0  0  0  0  0  0  0  0
   63.7331   85.6869   28.1122 H   0  0  0  0  0  0  0  0  0  0  0  0
   66.3094   86.8382   29.2811 H   0  0  0  0  0  0  0  0  0  0  0  0
   65.7383   86.8702   27.5358 H   0  0  0  0  0  0  0  0  0  0  0  0
   65.4790   88.8810   29.0790 H   0  0  0  0  0  0  0  0  0  0  0  0
   63.7344   89.0478   30.4202 H   0  0  0  0  0  0  0  0  0  0  0  0
   62.7999   87.8759   29.3584 H   0  0  0  0  0  0  0  0  0  0  0  0
   64.9373   87.1005   31.3917 H   0  0  0  0  0  0  0  0  0  0  0  0
   63.1548   86.9682   31.6243 H   0  0  0  0  0  0  0  0  0  0  0  0
   60.7338   85.1269   31.8463 H   0  0  0  0  0  0  0  0  0  0  0  0
   61.7896   85.2907   30.4023 H   0  0  0  0  0  0  0  0  0  0  0  0
   60.4465   84.0978   30.4023 H   0  0  0  0  0  0  0  0  0  0  0  0
   56.5969   78.8886   31.1928 H   0  0  0  0  0  0  0  0  0  0  0  0
  1  2  1  0
  2  3  1  0
  2  4  1  0
  4  5  2  0
  4  6  1  0
  6  7  1  0
  7  8  2  0
  8  9  1  0
  9 10  2  0
 10 11  1  0
 11 12  1  0
 12 13  2  0
 13 14  1  0
 14 15  1  0
 14 16  2  0
 16 17  1  0
 17 18  2  0
 18 19  1  0
 19 20  2  0
 20 21  1  0
 21 22  2  0
 22 23  1  0
 23 24  1  0
 24 25  1  0
 25 26  1  0
 26 27  1  0
 27 28  1  0
 28 29  1  0
 23 30  2  0
 30 31  1  0
 31 32  1  0
 16 33  1  0
 10 34  1  0
 34  6  2  0
 33 11  2  0
 31 17  1  0
 30 19  1  0
 29 24  1  0
  1 35  1  0
  1 36  1  0
  1 37  1  0
  3 38  1  0
  3 39  1  0
  3 40  1  0
  7 41  1  0
  8 42  1  0
  9 43  1  0
 12 44  1  0
 15 45  1  0
 15 46  1  0
 20 47  1  0
 21 48  1  0
 22 49  1  0
 25 50  1  0
 25 51  1  0
 26 52  1  0
 26 53  1  0
 27 54  1  0
 28 55  1  0
 28 56  1  0
 29 57  1  0
 29 58  1  0
 32 59  1  0
 32 60  1  0
 32 61  1  0
 34 62  1  0
M  END
>  <meeko>  (1) 
{"is_sidechain": false}

>  <smiles>  (1) 
CN(C)C(=O)c1cccc(-c2cnc(N)c(-c3nc4cccc(N5CCNCC5)c4n3C)n2)c1

>  <vina_score>  (1) 
-7.919

>  <job_id>  (1) 
b7c7f571f06dcead

$$$$
