
     RDKit          3D

 76 77  0  0  0  0  0  0  0  0999 V2000
   60.8010   83.9190   34.6680 C   0  0  0  0  0  0  0  0  0  0  0  0
   61.0120   83.1350   33.3750 C   0  0  2  0  0  0  0  0  0  0  0  0
   62.4320   83.2120   33.1140 O   0  0  0  0  0  0  0  0  0  0  0  0
   63.0000   82.0540   32.4830 C   0  0  2  0  0  0  0  0  0  0  0  0
   63.4350   81.1240   33.6120 C   0  0  0  0  0  0  0  0  0  0  0  0
   64.1760   82.5270   31.5940 C   0  0  1  0  0  0  0  0  0  0  0  0
   64.9990   81.3780   31.0200 C   0  0  0  0  0  0  0  0  0  0  0  0
   63.6100   83.2430   30.4790 O   0  0  0  0  0  0  0  0  0  0  0  0
   64.2560   84.4890   30.2330 C   0  0  1  0  0  0  0  0  0  0  0  0
   65.0150   84.9050   31.4810 C   0  0  0  0  0  0  0  0  0  0  0  0
   65.1500   84.3560   29.1450 O   0  0  0  0  0  0  0  0  0  0  0  0
   59.9360   83.7890   32.0420 S   0  0  0  0  0  0  0  0  0  0  0  0
   60.8130   84.5520   31.0200 N   0  0  0  0  0  0  0  0  0  0  0  0
   58.7500   84.3770   32.6460 O   0  0  0  0  0  0  0  0  0  0  0  0
   59.4000   82.3220   31.1720 C   0  0  0  0  0  0  0  0  0  0  0  0
   59.7620   82.1330   29.8390 C   0  0  0  0  0  0  0  0  0  0  0  0
   59.3250   80.9900   29.1590 C   0  0  0  0  0  0  0  0  0  0  0  0
   58.5440   80.0170   29.7950 C   0  0  0  0  0  0  0  0  0  0  0  0
   58.0610   78.8670   29.1610 N   0  0  0  0  0  0  0  0  0  0  0  0
   56.7920   78.4080   28.8260 C   0  0  0  0  0  0  0  0  0  0  0  0
   56.2490   77.3260   29.3990 N   0  0  0  0  0  0  0  0  0  0  0  0
   55.0150   76.9580   29.0020 C   0  0  0  0  0  0  0  0  0  0  0  0
   54.2890   77.6320   28.0550 C   0  0  0  0  0  0  0  0  0  0  0  0
   52.9480   77.1770   27.6220 C   0  0  0  0  0  0  0  0  0  0  0  0
   52.6270   75.9480   28.1200 F   0  0  0  0  0  0  0  0  0  0  0  0
   52.8490   77.0580   26.2700 F   0  0  0  0  0  0  0  0  0  0  0  0
   51.9220   77.9950   28.0030 F   0  0  0  0  0  0  0  0  0  0  0  0
   54.9310   78.7160   27.5150 C   0  0  0  0  0  0  0  0  0  0  0  0
   54.2470   79.4270   26.5550 O   0  0  0  0  0  0  0  0  0  0  0  0
   54.4500   80.8500   26.5150 C   0  0  2  0  0  0  0  0  0  0  0  0
   53.6570   81.5120   27.6450 C   0  0  0  0  0  0  0  0  0  0  0  0
   54.0440   81.3340   25.1000 C   0  0  2  0  0  0  0  0  0  0  0  0
   53.4490   82.7400   25.1290 C   0  0  0  0  0  0  0  0  0  0  0  0
   52.9160   80.2040   24.2890 S   0  0  1  0  0  4  0  0  0  0  0  0
   52.5600   80.8000   22.6650 C   0  0  0  0  0  0  0  0  0  0  0  0
   53.9300   78.9950   23.8950 O   0  0  0  0  0  0  0  0  0  0  0  0
   56.1620   79.1200   27.8800 N   0  0  0  0  0  0  0  0  0  0  0  0
   58.2000   80.2320   31.1420 C   0  0  0  0  0  0  0  0  0  0  0  0
   58.6250   81.3710   31.8330 C   0  0  0  0  0  0  0  0  0  0  0  0
   60.9786   83.2592   35.5300 H   0  0  0  0  0  0  0  0  0  0  0  0
   61.5035   84.7648   34.7028 H   0  0  0  0  0  0  0  0  0  0  0  0
   59.7689   84.2979   34.7028 H   0  0  0  0  0  0  0  0  0  0  0  0
   60.7175   82.0774   33.4444 H   0  0  0  0  0  0  0  0  0  0  0  0
   62.2999   81.5119   31.8303 H   0  0  0  0  0  0  0  0  0  0  0  0
   63.2144   81.5955   34.5810 H   0  0  0  0  0  0  0  0  0  0  0  0
   62.8885   80.1725   33.5344 H   0  0  0  0  0  0  0  0  0  0  0  0
   64.5156   80.9336   33.5344 H   0  0  0  0  0  0  0  0  0  0  0  0
   64.8426   83.1380   32.2203 H   0  0  0  0  0  0  0  0  0  0  0  0
   65.4241   80.7846   31.8429 H   0  0  0  0  0  0  0  0  0  0  0  0
   64.3530   80.7374   30.4016 H   0  0  0  0  0  0  0  0  0  0  0  0
   65.8134   81.7834   30.4016 H   0  0  0  0  0  0  0  0  0  0  0  0
   63.5072   85.2556   29.9845 H   0  0  0  0  0  0  0  0  0  0  0  0
   64.4509   84.5958   32.3733 H   0  0  0  0  0  0  0  0  0  0  0  0
   66.0036   84.4226   31.4868 H   0  0  0  0  0  0  0  0  0  0  0  0
   65.1402   85.9978   31.4868 H   0  0  0  0  0  0  0  0  0  0  0  0
   65.8450   83.7300   29.4400 H   0  0  0  0  0  0  0  0  0  0  0  0
   61.0530   85.4690   31.4240 H   0  0  0  0  0  0  0  0  0  0  0  0
   60.3873   82.8776   29.3246 H   0  0  0  0  0  0  0  0  0  0  0  0
   59.6009   80.8533   28.1030 H   0  0  0  0  0  0  0  0  0  0  0  0
   58.7490   78.2350   28.7810 H   0  0  0  0  0  0  0  0  0  0  0  0
   54.5652   76.0667   29.4639 H   0  0  0  0  0  0  0  0  0  0  0  0
   55.5006   81.1293   26.6829 H   0  0  0  0  0  0  0  0  0  0  0  0
   54.0547   81.1800   28.6154 H   0  0  0  0  0  0  0  0  0  0  0  0
   53.7489   82.6053   27.5658 H   0  0  0  0  0  0  0  0  0  0  0  0
   52.5977   81.2263   27.5658 H   0  0  0  0  0  0  0  0  0  0  0  0
   54.9733   81.3617   24.5121 H   0  0  0  0  0  0  0  0  0  0  0  0
   53.3138   83.0595   26.1729 H   0  0  0  0  0  0  0  0  0  0  0  0
   54.1294   83.4367   24.6175 H   0  0  0  0  0  0  0  0  0  0  0  0
   52.4752   82.7367   24.6175 H   0  0  0  0  0  0  0  0  0  0  0  0
   51.8510   79.7710   25.0020 H   0  0  0  0  0  0  0  0  0  0  0  0
   51.9971   81.7424   22.7355 H   0  0  0  0  0  0  0  0  0  0  0  0
   53.5017   80.9750   22.1240 H   0  0  0  0  0  0  0  0  0  0  0  0
   51.9595   80.0538   22.1240 H   0  0  0  0  0  0  0  0  0  0  0  0
   54.0120   78.2540   24.5520 H   0  0  0  0  0  0  0  0  0  0  0  0
   57.5821   79.4866   31.6640 H   0  0  0  0  0  0  0  0  0  0  0  0
   58.3502   81.5149   32.8883 H   0  0  0  0  0  0  0  0  0  0  0  0
  1  2  1  0
  2  3  1  0
  3  4  1  0
  4  5  1  0
  4  6  1  0
  6  7  1  0
  6  8  1  0
  8  9  1  0
  9 10  1  0
  9 11  1  0
  2 12  1  0
 12 13  2  0
 12 14  2  0
 12 15  1  0
 15 16  1  0
 16 17  2  0
 17 18  1  0
 18 19  1  0
 19 20  1  0
 20 21  2  0
 21 22  1  0
 22 23  2  0
 23 24  1  0
 24 25  1  0
 24 26  1  0
 24 27  1  0
 23 28  1  0
 28 29  1  0
 29 30  1  0
 30 31  1  0
 30 32  1  0
 32 33  1  0
 32 34  1  0
 34 35  1  0
 34 36  1  0
 28 37  2  0
 18 38  2  0
 38 39  1  0
 39 15  2  0
 37 20  1  0
  1 40  1  0
  1 41  1  0
  1 42  1  0
  2 43  1  1
  4 44  1  6
  5 45  1  0
  5 46  1  0
  5 47  1  0
  6 48  1  1
  7 49  1  0
  7 50  1  0
  7 51  1  0
  9 52  1  6
 10 53  1  0
 10 54  1  0
 10 55  1  0
 11 56  1  0
 13 57  1  0
 16 58  1  0
 17 59  1  0
 19 60  1  0
 22 61  1  0
 30 62  1  1
 31 63  1  0
 31 64  1  0
 31 65  1  0
 32 66  1  6
 33 67  1  0
 33 68  1  0
 33 69  1  0
 34 70  1  1
 35 71  1  0
 35 72  1  0
 35 73  1  0
 36 74  1  0
 38 75  1  0
 39 76  1  0
M  END
>  <meeko>  (1) 
{"is_sidechain": false}

>  <smiles>  (1) 
C[C@H](O[C@H](C)[C@@H](C)O[C@@H](C)O)S(=N)(=O)c1ccc(Nc2ncc(C(F)(F)F)c(O[C@H](C)[C@H](C)[S@@H](C)O)n2)cc1

>  <vina_score>  (1) 
-7.673

>  <job_id>  (1) 
b7fcc789eedf920d

$$$$
