
     RDKit          3D

 28 30  0  0  0  0  0  0  0  0999 V2000
   59.3100   80.8560   28.4330 N   0  0  0  0  0  0  0  0  0  0  0  0
   58.3330   80.2320   28.3950 C   0  0  0  0  0  0  0  0  0  0  0  0
   57.1230   79.4630   28.3360 C   0  0  0  0  0  0  0  0  0  0  0  0
   56.9870   78.3260   29.1290 C   0  0  0  0  0  0  0  0  0  0  0  0
   55.7990   77.5910   29.1100 C   0  0  0  0  0  0  0  0  0  0  0  0
   54.7420   77.9860   28.2640 C   0  0  0  0  0  0  0  0  0  0  0  0
   53.4240   77.5020   28.0900 C   0  0  0  0  0  0  0  0  0  0  0  0
   52.8110   78.3060   27.1630 C   0  0  0  0  0  0  0  0  0  0  0  0
   53.7290   79.2170   26.6640 N   0  0  0  0  0  0  0  0  0  0  0  0
   53.4290   80.0860   25.5630 C   0  0  0  0  0  0  0  0  0  0  0  0
   53.2260   79.5840   24.2840 C   0  0  0  0  0  0  0  0  0  0  0  0
   52.9350   80.4770   23.2560 C   0  0  0  0  0  0  0  0  0  0  0  0
   52.8400   81.8340   23.5370 C   0  0  0  0  0  0  0  0  0  0  0  0
   53.0140   82.2560   24.8440 C   0  0  0  0  0  0  0  0  0  0  0  0
   52.9350   83.6060   25.1700 N   0  0  0  0  0  0  0  0  0  0  0  0
   53.2970   81.4110   25.8480 N   0  0  0  0  0  0  0  0  0  0  0  0
   54.9060   79.0940   27.4170 C   0  0  0  0  0  0  0  0  0  0  0  0
   56.0850   79.8670   27.4810 C   0  0  0  0  0  0  0  0  0  0  0  0
   57.8189   78.0052   29.7733 H   0  0  0  0  0  0  0  0  0  0  0  0
   55.6883   76.7059   29.7537 H   0  0  0  0  0  0  0  0  0  0  0  0
   52.9738   76.6397   28.6035 H   0  0  0  0  0  0  0  0  0  0  0  0
   51.7551   78.2384   26.8623 H   0  0  0  0  0  0  0  0  0  0  0  0
   53.2937   78.5038   24.0873 H   0  0  0  0  0  0  0  0  0  0  0  0
   52.7817   80.1109   22.2301 H   0  0  0  0  0  0  0  0  0  0  0  0
   52.6306   82.5591   22.7367 H   0  0  0  0  0  0  0  0  0  0  0  0
   53.8870   83.9560   25.2320 H   0  0  0  0  0  0  0  0  0  0  0  0
   52.4200   83.7550   26.0300 H   0  0  0  0  0  0  0  0  0  0  0  0
   56.1895   80.7748   26.8686 H   0  0  0  0  0  0  0  0  0  0  0  0
  1  2  3  0
  2  3  1  0
  3  4  2  0
  4  5  1  0
  5  6  2  0
  6  7  1  0
  7  8  2  0
  8  9  1  0
  9 10  1  0
 10 11  2  0
 11 12  1  0
 12 13  2  0
 13 14  1  0
 14 15  1  0
 14 16  2  0
  9 17  1  0
 17 18  2  0
 18  3  1  0
 17  6  1  0
 16 10  1  0
  4 19  1  0
  5 20  1  0
  7 21  1  0
  8 22  1  0
 11 23  1  0
 12 24  1  0
 13 25  1  0
 15 26  1  0
 15 27  1  0
 18 28  1  0
M  END
>  <meeko>  (1) 
{"is_sidechain": false}

>  <smiles>  (1) 
N#Cc1ccc2ccn(-c3cccc(N)n3)c2c1

>  <vina_score>  (1) 
-8.084

>  <job_id>  (1) 
b890036e8cde9049

$$$$
