
     RDKit          3D

 36 37  0  0  0  0  0  0  0  0999 V2000
   60.9680   84.8420   32.8260 C   0  0  0  0  0  0  0  0  0  0  0  0
   62.2190   84.1370   32.5810 N   0  0  0  0  0  0  0  0  0  0  0  0
   63.4300   84.8210   33.0000 C   0  0  0  0  0  0  0  0  0  0  0  0
   62.3140   82.7940   32.2170 C   0  0  0  0  0  0  0  0  0  0  0  0
   63.3390   82.1280   32.3510 O   0  0  0  0  0  0  0  0  0  0  0  0
   61.1360   82.1210   31.6220 C   0  0  0  0  0  0  0  0  0  0  0  0
   60.3690   81.2710   32.4210 C   0  0  0  0  0  0  0  0  0  0  0  0
   59.2690   80.6050   31.8710 C   0  0  0  0  0  0  0  0  0  0  0  0
   58.9340   80.7700   30.5190 C   0  0  0  0  0  0  0  0  0  0  0  0
   57.8070   80.0640   30.0490 N   0  0  0  0  0  0  0  0  0  0  0  0
   57.6940   79.3290   28.8860 C   0  0  0  0  0  0  0  0  0  0  0  0
   58.5600   79.1970   28.0270 O   0  0  0  0  0  0  0  0  0  0  0  0
   56.3630   78.6980   28.6320 C   0  0  0  0  0  0  0  0  0  0  0  0
   56.0210   77.6180   29.4680 C   0  0  0  0  0  0  0  0  0  0  0  0
   54.8050   76.9490   29.3170 C   0  0  0  0  0  0  0  0  0  0  0  0
   53.9100   77.3530   28.3320 C   0  0  0  0  0  0  0  0  0  0  0  0
   54.2280   78.4310   27.5040 C   0  0  0  0  0  0  0  0  0  0  0  0
   55.4470   79.1070   27.6520 C   0  0  0  0  0  0  0  0  0  0  0  0
   55.7100   80.4530   26.5980 Cl  0  0  0  0  0  0  0  0  0  0  0  0
   59.7250   81.6010   29.7220 C   0  0  0  0  0  0  0  0  0  0  0  0
   60.8300   82.2680   30.2670 C   0  0  0  0  0  0  0  0  0  0  0  0
   60.8051   84.9338   33.9100 H   0  0  0  0  0  0  0  0  0  0  0  0
   61.0181   85.8447   32.3765 H   0  0  0  0  0  0  0  0  0  0  0  0
   60.1362   84.2798   32.3765 H   0  0  0  0  0  0  0  0  0  0  0  0
   63.4752   84.8465   34.0988 H   0  0  0  0  0  0  0  0  0  0  0  0
   64.3076   84.2852   32.6093 H   0  0  0  0  0  0  0  0  0  0  0  0
   63.4242   85.8492   32.6093 H   0  0  0  0  0  0  0  0  0  0  0  0
   60.6290   81.1256   33.4799 H   0  0  0  0  0  0  0  0  0  0  0  0
   58.6599   79.9446   32.5057 H   0  0  0  0  0  0  0  0  0  0  0  0
   56.9980   80.0780   30.6590 H   0  0  0  0  0  0  0  0  0  0  0  0
   56.7225   77.2965   30.2519 H   0  0  0  0  0  0  0  0  0  0  0  0
   54.5552   76.1041   29.9757 H   0  0  0  0  0  0  0  0  0  0  0  0
   52.9537   76.8243   28.2057 H   0  0  0  0  0  0  0  0  0  0  0  0
   53.5163   78.7525   26.7293 H   0  0  0  0  0  0  0  0  0  0  0  0
   59.4783   81.7327   28.6581 H   0  0  0  0  0  0  0  0  0  0  0  0
   61.4566   82.9074   29.6279 H   0  0  0  0  0  0  0  0  0  0  0  0
  1  2  1  0
  2  3  1  0
  2  4  1  0
  4  5  2  0
  4  6  1  0
  6  7  1  0
  7  8  2  0
  8  9  1  0
  9 10  1  0
 10 11  1  0
 11 12  2  0
 11 13  1  0
 13 14  2  0
 14 15  1  0
 15 16  2  0
 16 17  1  0
 17 18  2  0
 18 19  1  0
  9 20  2  0
 20 21  1  0
 21  6  2  0
 18 13  1  0
  1 22  1  0
  1 23  1  0
  1 24  1  0
  3 25  1  0
  3 26  1  0
  3 27  1  0
  7 28  1  0
  8 29  1  0
 10 30  1  0
 14 31  1  0
 15 32  1  0
 16 33  1  0
 17 34  1  0
 20 35  1  0
 21 36  1  0
M  END
>  <meeko>  (1) 
{"is_sidechain": false}

>  <smiles>  (1) 
CN(C)C(=O)c1ccc(NC(=O)c2ccccc2Cl)cc1

>  <vina_score>  (1) 
-7.283

>  <job_id>  (1) 
b90cc5d6b2fc4361

$$$$
