
     RDKit          3D

 48 50  0  0  0  0  0  0  0  0999 V2000
   55.3340   76.6700   29.9600 C   0  0  0  0  0  0  0  0  0  0  0  0
   54.5210   77.1320   28.7820 C   0  0  0  0  0  0  0  0  0  0  0  0
   53.5450   76.2690   28.3950 N   0  0  0  0  0  0  0  0  0  0  0  0
   52.8010   76.6080   27.3270 C   0  0  0  0  0  0  0  0  0  0  0  0
   52.9550   77.7930   26.6360 C   0  0  0  0  0  0  0  0  0  0  0  0
   53.9440   78.6970   27.0480 C   0  0  0  0  0  0  0  0  0  0  0  0
   53.9270   80.0120   26.4100 C   0  0  0  0  0  0  0  0  0  0  0  0
   53.3310   80.2120   25.1810 C   0  0  0  0  0  0  0  0  0  0  0  0
   53.4810   81.8260   24.6380 S   0  0  0  0  0  0  0  0  0  0  0  0
   54.3910   82.2800   26.0170 C   0  0  0  0  0  0  0  0  0  0  0  0
   54.8980   83.6290   26.2070 C   0  0  0  0  0  0  0  0  0  0  0  0
   54.1080   84.6560   25.7700 N   0  0  0  0  0  0  0  0  0  0  0  0
   55.9780   83.8930   26.7290 O   0  0  0  0  0  0  0  0  0  0  0  0
   54.5640   81.2080   26.8720 C   0  0  0  0  0  0  0  0  0  0  0  0
   54.7920   78.3460   28.1200 C   0  0  0  0  0  0  0  0  0  0  0  0
   55.8660   79.1440   28.5860 N   0  0  0  0  0  0  0  0  0  0  0  0
   57.2130   78.8360   28.4970 C   0  0  0  0  0  0  0  0  0  0  0  0
   57.7110   77.8270   28.0200 O   0  0  0  0  0  0  0  0  0  0  0  0
   58.0890   79.8600   29.1490 C   0  0  0  0  0  0  0  0  0  0  0  0
   58.4650   80.9790   28.4460 C   0  0  0  0  0  0  0  0  0  0  0  0
   59.2640   81.8430   29.1420 C   0  0  0  0  0  0  0  0  0  0  0  0
   59.6560   81.6260   30.4110 N   0  0  0  0  0  0  0  0  0  0  0  0
   59.2370   80.5050   31.0140 C   0  0  0  0  0  0  0  0  0  0  0  0
   59.5980   80.2310   32.3190 N   0  0  0  0  0  0  0  0  0  0  0  0
   59.3530   81.2540   33.3260 C   0  0  0  0  0  0  0  0  0  0  0  0
   57.8430   81.3570   33.5390 C   0  0  0  0  0  0  0  0  0  0  0  0
   60.0450   80.8950   34.6420 C   0  0  0  0  0  0  0  0  0  0  0  0
   58.4630   79.5900   30.4260 N   0  0  0  0  0  0  0  0  0  0  0  0
   54.8260   76.9587   30.8920 H   0  0  0  0  0  0  0  0  0  0  0  0
   55.4416   75.5758   29.9248 H   0  0  0  0  0  0  0  0  0  0  0  0
   56.3291   77.1376   29.9248 H   0  0  0  0  0  0  0  0  0  0  0  0
   52.0284   75.9032   26.9859 H   0  0  0  0  0  0  0  0  0  0  0  0
   52.3111   78.0245   25.7747 H   0  0  0  0  0  0  0  0  0  0  0  0
   52.8171   79.4214   24.6145 H   0  0  0  0  0  0  0  0  0  0  0  0
   54.4360   85.6000   25.9140 H   0  0  0  0  0  0  0  0  0  0  0  0
   53.2020   84.4900   25.3580 H   0  0  0  0  0  0  0  0  0  0  0  0
   55.1330   81.2676   27.8115 H   0  0  0  0  0  0  0  0  0  0  0  0
   55.6710   79.8600   29.2810 H   0  0  0  0  0  0  0  0  0  0  0  0
   58.1492   81.1645   27.4087 H   0  0  0  0  0  0  0  0  0  0  0  0
   59.6032   82.7610   28.6398 H   0  0  0  0  0  0  0  0  0  0  0  0
   60.5190   79.8130   32.3220 H   0  0  0  0  0  0  0  0  0  0  0  0
   59.7598   82.2173   32.9846 H   0  0  0  0  0  0  0  0  0  0  0  0
   57.6249   81.3719   34.6171 H   0  0  0  0  0  0  0  0  0  0  0  0
   57.4698   82.2827   33.0766 H   0  0  0  0  0  0  0  0  0  0  0  0
   57.3475   80.4906   33.0766 H   0  0  0  0  0  0  0  0  0  0  0  0
   59.4188   81.2198   35.4860 H   0  0  0  0  0  0  0  0  0  0  0  0
   60.1933   79.8062   34.6932 H   0  0  0  0  0  0  0  0  0  0  0  0
   61.0205   81.4007   34.6932 H   0  0  0  0  0  0  0  0  0  0  0  0
  1  2  1  0
  2  3  1  0
  3  4  2  0
  4  5  1  0
  5  6  2  0
  6  7  1  0
  7  8  2  0
  8  9  1  0
  9 10  1  0
 10 11  1  0
 11 12  1  0
 11 13  2  0
 10 14  2  0
  6 15  1  0
 15 16  1  0
 16 17  1  0
 17 18  2  0
 17 19  1  0
 19 20  1  0
 20 21  2  0
 21 22  1  0
 22 23  2  0
 23 24  1  0
 24 25  1  0
 25 26  1  0
 25 27  1  0
 23 28  1  0
 15  2  2  0
 28 19  2  0
 14  7  1  0
  1 29  1  0
  1 30  1  0
  1 31  1  0
  4 32  1  0
  5 33  1  0
  8 34  1  0
 12 35  1  0
 12 36  1  0
 14 37  1  0
 16 38  1  0
 20 39  1  0
 21 40  1  0
 24 41  1  0
 25 42  1  0
 26 43  1  0
 26 44  1  0
 26 45  1  0
 27 46  1  0
 27 47  1  0
 27 48  1  0
M  END
>  <meeko>  (1) 
{"is_sidechain": false}

>  <smiles>  (1) 
Cc1nccc(-c2csc(C(N)=O)c2)c1NC(=O)c1ccnc(NC(C)C)n1

>  <vina_score>  (1) 
-8.557

>  <job_id>  (1) 
b93cfbb2d5fe9ee5

$$$$
