
     RDKit          3D

 43 45  0  0  0  0  0  0  0  0999 V2000
   58.9330   79.7460   28.0220 O   0  0  0  0  0  0  0  0  0  0  0  0
   58.1530   79.7310   28.9700 C   0  0  0  0  0  0  0  0  0  0  0  0
   56.8800   79.0000   28.8200 C   0  0  0  0  0  0  0  0  0  0  0  0
   56.5940   77.9050   29.6320 C   0  0  0  0  0  0  0  0  0  0  0  0
   55.3840   77.2440   29.4660 C   0  0  0  0  0  0  0  0  0  0  0  0
   54.4670   77.6950   28.5080 C   0  0  0  0  0  0  0  0  0  0  0  0
   54.7120   78.8230   27.7020 C   0  0  0  0  0  0  0  0  0  0  0  0
   53.7830   79.2480   26.7560 N   0  0  0  0  0  0  0  0  0  0  0  0
   53.1030   80.5460   26.9080 C   0  0  0  0  0  0  0  0  0  0  0  0
   52.6820   81.1770   25.5810 C   0  0  0  0  0  0  0  0  0  0  0  0
   53.5920   80.8210   24.4010 C   0  0  0  0  0  0  0  0  0  0  0  0
   53.2860   79.5790   23.6830 N   0  0  0  0  0  0  0  0  0  0  0  0
   53.7120   78.3730   24.4180 C   0  0  0  0  0  0  0  0  0  0  0  0
   53.1460   78.2580   25.8600 C   0  0  0  0  0  0  0  0  0  0  0  0
   55.9480   79.4620   27.8790 C   0  0  0  0  0  0  0  0  0  0  0  0
   58.4110   80.3390   30.1850 N   0  0  0  0  0  0  0  0  0  0  0  0
   59.6730   81.0200   30.4180 C   0  0  0  0  0  0  0  0  0  0  0  0
   59.8060   81.0730   31.9330 C   0  0  0  0  0  0  0  0  0  0  0  0
   58.3570   81.1250   32.4010 C   0  0  0  0  0  0  0  0  0  0  0  0
   57.6480   80.2030   31.4180 C   0  0  0  0  0  0  0  0  0  0  0  0
   57.3147   77.5694   30.3922 H   0  0  0  0  0  0  0  0  0  0  0  0
   55.1460   76.3672   30.0862 H   0  0  0  0  0  0  0  0  0  0  0  0
   53.5212   77.1480   28.3808 H   0  0  0  0  0  0  0  0  0  0  0  0
   52.2031   80.3970   27.5229 H   0  0  0  0  0  0  0  0  0  0  0  0
   53.8223   81.2332   27.3774 H   0  0  0  0  0  0  0  0  0  0  0  0
   51.6626   80.8376   25.3454 H   0  0  0  0  0  0  0  0  0  0  0  0
   52.7476   82.2670   25.7138 H   0  0  0  0  0  0  0  0  0  0  0  0
   53.5365   81.6469   23.6765 H   0  0  0  0  0  0  0  0  0  0  0  0
   54.5872   80.6618   24.8418 H   0  0  0  0  0  0  0  0  0  0  0  0
   53.8710   79.5820   22.8380 H   0  0  0  0  0  0  0  0  0  0  0  0
   53.3826   77.4909   23.8493 H   0  0  0  0  0  0  0  0  0  0  0  0
   54.8054   78.4400   24.5178 H   0  0  0  0  0  0  0  0  0  0  0  0
   52.0611   78.4384   25.8368 H   0  0  0  0  0  0  0  0  0  0  0  0
   53.3588   77.2488   26.2424 H   0  0  0  0  0  0  0  0  0  0  0  0
   56.1914   80.3433   27.2674 H   0  0  0  0  0  0  0  0  0  0  0  0
   60.5065   80.4557   29.9744 H   0  0  0  0  0  0  0  0  0  0  0  0
   59.6978   82.0205   29.9616 H   0  0  0  0  0  0  0  0  0  0  0  0
   60.3139   80.1761   32.3172 H   0  0  0  0  0  0  0  0  0  0  0  0
   60.4072   81.9237   32.2865 H   0  0  0  0  0  0  0  0  0  0  0  0
   58.2606   80.7535   33.4319 H   0  0  0  0  0  0  0  0  0  0  0  0
   57.9423   82.1437   32.4172 H   0  0  0  0  0  0  0  0  0  0  0  0
   57.6671   79.1629   31.7757 H   0  0  0  0  0  0  0  0  0  0  0  0
   56.5872   80.4629   31.2873 H   0  0  0  0  0  0  0  0  0  0  0  0
  1  2  2  0
  2  3  1  0
  3  4  1  0
  4  5  2  0
  5  6  1  0
  6  7  2  0
  7  8  1  0
  8  9  1  0
  9 10  1  0
 10 11  1  0
 11 12  1  0
 12 13  1  0
 13 14  1  0
  7 15  1  0
  2 16  1  0
 16 17  1  0
 17 18  1  0
 18 19  1  0
 19 20  1  0
 15  3  2  0
 20 16  1  0
 14  8  1  0
  4 21  1  0
  5 22  1  0
  6 23  1  0
  9 24  1  0
  9 25  1  0
 10 26  1  0
 10 27  1  0
 11 28  1  0
 11 29  1  0
 12 30  1  0
 13 31  1  0
 13 32  1  0
 14 33  1  0
 14 34  1  0
 15 35  1  0
 17 36  1  0
 17 37  1  0
 18 38  1  0
 18 39  1  0
 19 40  1  0
 19 41  1  0
 20 42  1  0
 20 43  1  0
M  END
>  <meeko>  (1) 
{"is_sidechain": false}

>  <smiles>  (1) 
O=C(c1cccc(N2CCCNCC2)c1)N1CCCC1

>  <vina_score>  (1) 
-5.675

>  <job_id>  (1) 
b98b0a22ec0c7455

$$$$
