
     RDKit          3D

 68 70  0  0  0  0  0  0  0  0999 V2000
   64.0060   87.4510   28.2270 C   0  0  0  0  0  0  0  0  0  0  0  0
   64.9050   87.0720   27.3040 C   0  0  0  0  0  0  0  0  0  0  0  0
   64.9830   87.7320   25.9560 C   0  0  0  0  0  0  0  0  0  0  0  0
   65.9470   85.7160   27.6490 S   0  0  0  0  0  0  0  0  0  0  0  0
   65.6170   85.3890   29.3550 C   0  0  0  0  0  0  0  0  0  0  0  0
   66.4350   86.2220   30.3120 C   0  0  0  0  0  0  0  0  0  0  0  0
   64.7440   84.4780   29.6480 N   0  0  0  0  0  0  0  0  0  0  0  0
   64.4420   84.1350   31.2530 S   0  0  0  0  0  0  0  0  0  0  0  0
   63.1840   82.5060   30.9670 S   0  0  0  0  0  4  0  0  0  0  0  0
   64.1850   81.1430   30.6450 N   0  0  0  0  0  0  0  0  0  0  0  0
   62.2580   82.2450   32.4810 C   0  0  0  0  0  0  0  0  0  0  0  0
   62.7810   81.4170   33.2330 O   0  0  0  0  0  0  0  0  0  0  0  0
   60.9440   82.8650   32.8670 C   0  0  0  0  0  0  0  0  0  0  0  0
   60.0990   83.1160   31.6520 C   0  0  0  0  0  0  0  0  0  0  0  0
   59.9130   84.2600   31.2420 O   0  0  0  0  0  0  0  0  0  0  0  0
   59.4950   81.9660   30.9230 C   0  0  0  0  0  0  0  0  0  0  0  0
   59.5300   81.8590   29.5330 C   0  0  0  0  0  0  0  0  0  0  0  0
   58.9360   80.7570   28.9010 C   0  0  0  0  0  0  0  0  0  0  0  0
   58.3000   79.7430   29.6350 C   0  0  0  0  0  0  0  0  0  0  0  0
   57.6910   78.6950   28.9370 N   0  0  0  0  0  0  0  0  0  0  0  0
   56.3720   78.3990   28.6120 C   0  0  0  0  0  0  0  0  0  0  0  0
   55.7470   77.5690   29.4670 N   0  0  0  0  0  0  0  0  0  0  0  0
   54.4700   77.2360   29.1810 C   0  0  0  0  0  0  0  0  0  0  0  0
   53.8030   77.6870   28.0730 C   0  0  0  0  0  0  0  0  0  0  0  0
   52.5360   77.3240   27.8370 F   0  0  0  0  0  0  0  0  0  0  0  0
   54.5200   78.5140   27.2400 C   0  0  0  0  0  0  0  0  0  0  0  0
   53.9450   79.1050   26.0360 C   0  0  0  0  0  0  0  0  0  0  0  0
   53.4170   78.4620   24.9330 C   0  0  0  0  0  0  0  0  0  0  0  0
   52.9280   79.3460   24.0210 N   0  0  0  0  0  0  0  0  0  0  0  0
   53.1450   80.5440   24.5230 C   0  0  0  0  0  0  0  0  0  0  0  0
   52.7020   81.7960   23.8580 C   0  0  0  0  0  0  0  0  0  0  0  0
   53.8130   80.4580   25.7360 N   0  0  0  0  0  0  0  0  0  0  0  0
   54.3660   81.5670   26.5180 C   0  0  0  0  0  0  0  0  0  0  0  0
   53.3100   82.5430   27.0370 C   0  0  0  0  0  0  0  0  0  0  0  0
   55.5030   82.2820   25.7870 C   0  0  0  0  0  0  0  0  0  0  0  0
   55.7940   78.8840   27.5020 N   0  0  0  0  0  0  0  0  0  0  0  0
   58.2590   79.8790   31.0250 C   0  0  0  0  0  0  0  0  0  0  0  0
   58.8470   80.9760   31.6670 C   0  0  0  0  0  0  0  0  0  0  0  0
   63.9753   86.9471   29.2043 H   0  0  0  0  0  0  0  0  0  0  0  0
   63.3004   88.2653   28.0057 H   0  0  0  0  0  0  0  0  0  0  0  0
   65.1112   88.8168   26.0857 H   0  0  0  0  0  0  0  0  0  0  0  0
   65.8394   87.3257   25.3978 H   0  0  0  0  0  0  0  0  0  0  0  0
   64.0555   87.5366   25.3978 H   0  0  0  0  0  0  0  0  0  0  0  0
   66.1730   85.9552   31.3465 H   0  0  0  0  0  0  0  0  0  0  0  0
   67.5048   86.0296   30.1434 H   0  0  0  0  0  0  0  0  0  0  0  0
   66.2232   87.2882   30.1434 H   0  0  0  0  0  0  0  0  0  0  0  0
   62.3370   82.7330   29.9350 H   0  0  0  0  0  0  0  0  0  0  0  0
   65.0610   81.4540   30.2290 H   0  0  0  0  0  0  0  0  0  0  0  0
   63.7280   80.5850   29.9190 H   0  0  0  0  0  0  0  0  0  0  0  0
   60.4086   82.1840   33.5449 H   0  0  0  0  0  0  0  0  0  0  0  0
   61.1391   83.8253   33.3669 H   0  0  0  0  0  0  0  0  0  0  0  0
   60.0230   82.6381   28.9330 H   0  0  0  0  0  0  0  0  0  0  0  0
   58.9691   80.6853   27.8038 H   0  0  0  0  0  0  0  0  0  0  0  0
   58.2830   77.9270   28.6510 H   0  0  0  0  0  0  0  0  0  0  0  0
   53.9377   76.5678   29.8739 H   0  0  0  0  0  0  0  0  0  0  0  0
   53.3946   77.3694   24.8073 H   0  0  0  0  0  0  0  0  0  0  0  0
   52.4377   82.5428   24.6212 H   0  0  0  0  0  0  0  0  0  0  0  0
   53.5168   82.1858   23.2302 H   0  0  0  0  0  0  0  0  0  0  0  0
   51.8234   81.5866   23.2302 H   0  0  0  0  0  0  0  0  0  0  0  0
   54.7993   81.1009   27.4152 H   0  0  0  0  0  0  0  0  0  0  0  0
   53.3153   82.5381   28.1370 H   0  0  0  0  0  0  0  0  0  0  0  0
   53.5370   83.5562   26.6737 H   0  0  0  0  0  0  0  0  0  0  0  0
   52.3178   82.2370   26.6737 H   0  0  0  0  0  0  0  0  0  0  0  0
   56.1953   82.7174   26.5226 H   0  0  0  0  0  0  0  0  0  0  0  0
   56.0439   81.5612   25.1563 H   0  0  0  0  0  0  0  0  0  0  0  0
   55.0877   83.0818   25.1563 H   0  0  0  0  0  0  0  0  0  0  0  0
   57.7547   79.1089   31.6272 H   0  0  0  0  0  0  0  0  0  0  0  0
   58.7986   81.0589   32.7628 H   0  0  0  0  0  0  0  0  0  0  0  0
  1  2  2  0
  2  3  1  0
  2  4  1  0
  4  5  1  0
  5  6  1  0
  5  7  2  3
  7  8  1  0
  8  9  1  0
  9 10  1  0
  9 11  1  0
 11 12  2  0
 11 13  1  0
 13 14  1  0
 14 15  2  0
 14 16  1  0
 16 17  1  0
 17 18  2  0
 18 19  1  0
 19 20  1  0
 20 21  1  0
 21 22  2  0
 22 23  1  0
 23 24  2  0
 24 25  1  0
 24 26  1  0
 26 27  1  0
 27 28  2  0
 28 29  1  0
 29 30  2  0
 30 31  1  0
 30 32  1  0
 32 33  1  0
 33 34  1  0
 33 35  1  0
 26 36  2  0
 19 37  2  0
 37 38  1  0
 38 16  2  0
 36 21  1  0
 32 27  1  0
  1 39  1  0
  1 40  1  0
  3 41  1  0
  3 42  1  0
  3 43  1  0
  6 44  1  0
  6 45  1  0
  6 46  1  0
  9 47  1  0
 10 48  1  0
 10 49  1  0
 13 50  1  0
 13 51  1  0
 17 52  1  0
 18 53  1  0
 20 54  1  0
 23 55  1  0
 28 56  1  0
 31 57  1  0
 31 58  1  0
 31 59  1  0
 33 60  1  0
 34 61  1  0
 34 62  1  0
 34 63  1  0
 35 64  1  0
 35 65  1  0
 35 66  1  0
 37 67  1  0
 38 68  1  0
M  END
>  <meeko>  (1) 
{"is_sidechain": false}

>  <smiles>  (1) 
C=C(C)SC(C)=NS[SH](N)C(=O)CC(=O)c1ccc(Nc2ncc(F)c(-c3cnc(C)n3C(C)C)n2)cc1

>  <vina_score>  (1) 
-8.689

>  <job_id>  (1) 
b993d51a5ff98bc8

$$$$
