
     RDKit          3D

 32 33  0  0  0  0  0  0  0  0999 V2000
   58.2100   79.0930   28.0200 O   0  0  0  0  0  0  0  0  0  0  0  0
   57.5740   80.1440   28.0160 C   0  0  0  0  0  0  0  0  0  0  0  0
   56.3730   80.3110   27.0920 C   0  0  0  0  0  0  0  0  0  0  0  0
   55.3190   79.2380   27.2440 C   0  0  0  0  0  0  0  0  0  0  0  0
   55.2750   78.4390   28.3940 C   0  0  0  0  0  0  0  0  0  0  0  0
   54.2990   77.4500   28.5300 C   0  0  0  0  0  0  0  0  0  0  0  0
   53.3470   77.2390   27.5230 C   0  0  0  0  0  0  0  0  0  0  0  0
   52.3090   76.1530   27.6640 C   0  0  0  0  0  0  0  0  0  0  0  0
   51.8120   75.7250   26.4690 F   0  0  0  0  0  0  0  0  0  0  0  0
   51.2270   76.5450   28.3950 F   0  0  0  0  0  0  0  0  0  0  0  0
   52.7980   75.0450   28.2850 F   0  0  0  0  0  0  0  0  0  0  0  0
   53.4040   78.0280   26.3650 C   0  0  0  0  0  0  0  0  0  0  0  0
   54.3800   79.0170   26.2260 C   0  0  0  0  0  0  0  0  0  0  0  0
   57.7970   81.2450   28.8260 N   0  0  0  0  0  0  0  0  0  0  0  0
   58.7930   81.4050   29.8100 C   0  0  0  0  0  0  0  0  0  0  0  0
   58.5580   80.8110   31.0580 C   0  0  0  0  0  0  0  0  0  0  0  0
   59.4970   80.9200   32.0890 C   0  0  0  0  0  0  0  0  0  0  0  0
   60.6790   81.6240   31.8800 C   0  0  0  0  0  0  0  0  0  0  0  0
   60.9230   82.2160   30.6440 C   0  0  0  0  0  0  0  0  0  0  0  0
   59.9830   82.1060   29.6120 C   0  0  0  0  0  0  0  0  0  0  0  0
   55.9071   81.2845   27.3047 H   0  0  0  0  0  0  0  0  0  0  0  0
   56.7538   80.2359   26.0627 H   0  0  0  0  0  0  0  0  0  0  0  0
   56.0138   78.5918   29.1945 H   0  0  0  0  0  0  0  0  0  0  0  0
   54.2768   76.8292   29.4378 H   0  0  0  0  0  0  0  0  0  0  0  0
   52.6732   77.8663   25.5589 H   0  0  0  0  0  0  0  0  0  0  0  0
   54.4126   79.6272   25.3113 H   0  0  0  0  0  0  0  0  0  0  0  0
   57.2120   82.0540   28.6590 H   0  0  0  0  0  0  0  0  0  0  0  0
   57.6253   80.2533   31.2282 H   0  0  0  0  0  0  0  0  0  0  0  0
   59.3013   80.4497   33.0640 H   0  0  0  0  0  0  0  0  0  0  0  0
   61.4186   81.7125   32.6894 H   0  0  0  0  0  0  0  0  0  0  0  0
   61.8574   82.7721   30.4774 H   0  0  0  0  0  0  0  0  0  0  0  0
   60.1843   82.5758   28.6379 H   0  0  0  0  0  0  0  0  0  0  0  0
  1  2  2  0
  2  3  1  0
  3  4  1  0
  4  5  1  0
  5  6  2  0
  6  7  1  0
  7  8  1  0
  8  9  1  0
  8 10  1  0
  8 11  1  0
  7 12  2  0
 12 13  1  0
  2 14  1  0
 14 15  1  0
 15 16  2  0
 16 17  1  0
 17 18  2  0
 18 19  1  0
 19 20  2  0
 13  4  2  0
 20 15  1  0
  3 21  1  0
  3 22  1  0
  5 23  1  0
  6 24  1  0
 12 25  1  0
 13 26  1  0
 14 27  1  0
 16 28  1  0
 17 29  1  0
 18 30  1  0
 19 31  1  0
 20 32  1  0
M  END
>  <meeko>  (1) 
{"is_sidechain": false}

>  <smiles>  (1) 
O=C(Cc1ccc(C(F)(F)F)cc1)Nc1ccccc1

>  <vina_score>  (1) 
-8.061

>  <job_id>  (1) 
b9b8772ee2fa988f

$$$$
