
     RDKit          3D

 42 43  0  0  0  0  0  0  0  0999 V2000
   52.9530   78.3380   26.6370 C   0  0  0  0  0  0  0  0  0  0  0  0
   54.2400   79.1180   26.7010 C   0  0  0  0  0  0  0  0  0  0  0  0
   55.1860   78.7990   27.6980 C   0  0  0  0  0  0  0  0  0  0  0  0
   56.4080   79.4820   27.8190 C   0  0  0  0  0  0  0  0  0  0  0  0
   57.4490   79.1460   28.9020 C   0  0  0  0  0  0  0  0  0  0  0  0
   56.7280   78.7290   30.2020 C   0  0  0  0  0  0  0  0  0  0  0  0
   58.3850   80.3230   29.2580 C   0  0  0  0  0  0  0  0  0  0  0  0
   58.3410   77.9830   28.4200 C   0  0  0  0  0  0  0  0  0  0  0  0
   56.6580   80.5100   26.8950 C   0  0  0  0  0  0  0  0  0  0  0  0
   55.7340   80.8380   25.9000 C   0  0  0  0  0  0  0  0  0  0  0  0
   54.5170   80.1520   25.7850 C   0  0  0  0  0  0  0  0  0  0  0  0
   53.5810   80.5320   24.7200 C   0  0  0  0  0  0  0  0  0  0  0  0
   53.0730   79.5670   23.8360 C   0  0  0  0  0  0  0  0  0  0  0  0
   52.1850   79.9250   22.8180 C   0  0  0  0  0  0  0  0  0  0  0  0
   51.7940   81.2600   22.6870 C   0  0  0  0  0  0  0  0  0  0  0  0
   50.6960   81.7240   21.3810 S   0  0  0  0  0  0  0  0  0  0  0  0
   49.2010   81.3070   22.0200 N   0  0  0  0  0  0  0  0  0  0  0  0
   50.9010   80.8500   20.2500 O   0  0  0  0  0  0  0  0  0  0  0  0
   50.6850   83.1640   21.2550 O   0  0  0  0  0  0  0  0  0  0  0  0
   52.2990   82.2380   23.5460 C   0  0  0  0  0  0  0  0  0  0  0  0
   53.1860   81.8710   24.5600 C   0  0  0  0  0  0  0  0  0  0  0  0
   52.6020   78.1253   27.6576 H   0  0  0  0  0  0  0  0  0  0  0  0
   52.1930   78.9276   26.1033 H   0  0  0  0  0  0  0  0  0  0  0  0
   53.1241   77.3915   26.1033 H   0  0  0  0  0  0  0  0  0  0  0  0
   54.9590   77.9875   28.4051 H   0  0  0  0  0  0  0  0  0  0  0  0
   57.3127   79.0672   31.0702 H   0  0  0  0  0  0  0  0  0  0  0  0
   55.7291   79.1888   30.2310 H   0  0  0  0  0  0  0  0  0  0  0  0
   56.6285   77.6339   30.2310 H   0  0  0  0  0  0  0  0  0  0  0  0
   58.4584   80.4153   30.3517 H   0  0  0  0  0  0  0  0  0  0  0  0
   59.3844   80.1367   28.8379 H   0  0  0  0  0  0  0  0  0  0  0  0
   57.9785   81.2548   28.8379 H   0  0  0  0  0  0  0  0  0  0  0  0
   58.7502   77.4495   29.2906 H   0  0  0  0  0  0  0  0  0  0  0  0
   57.7417   77.2886   27.8129 H   0  0  0  0  0  0  0  0  0  0  0  0
   59.1671   78.3818   27.8129 H   0  0  0  0  0  0  0  0  0  0  0  0
   57.6030   81.0696   26.9563 H   0  0  0  0  0  0  0  0  0  0  0  0
   55.9656   81.6492   25.1941 H   0  0  0  0  0  0  0  0  0  0  0  0
   53.3778   78.5158   23.9460 H   0  0  0  0  0  0  0  0  0  0  0  0
   51.7974   79.1627   22.1261 H   0  0  0  0  0  0  0  0  0  0  0  0
   48.9510   80.3620   21.7260 H   0  0  0  0  0  0  0  0  0  0  0  0
   48.5090   82.0130   21.7700 H   0  0  0  0  0  0  0  0  0  0  0  0
   52.0003   83.2897   23.4248 H   0  0  0  0  0  0  0  0  0  0  0  0
   53.5802   82.6391   25.2416 H   0  0  0  0  0  0  0  0  0  0  0  0
  1  2  1  0
  2  3  1  0
  3  4  2  0
  4  5  1  0
  5  6  1  0
  5  7  1  0
  5  8  1  0
  4  9  1  0
  9 10  2  0
 10 11  1  0
 11 12  1  0
 12 13  1  0
 13 14  2  0
 14 15  1  0
 15 16  1  0
 16 17  1  0
 16 18  2  0
 16 19  2  0
 15 20  2  0
 20 21  1  0
 11  2  2  0
 21 12  2  0
  1 22  1  0
  1 23  1  0
  1 24  1  0
  3 25  1  0
  6 26  1  0
  6 27  1  0
  6 28  1  0
  7 29  1  0
  7 30  1  0
  7 31  1  0
  8 32  1  0
  8 33  1  0
  8 34  1  0
  9 35  1  0
 10 36  1  0
 13 37  1  0
 14 38  1  0
 17 39  1  0
 17 40  1  0
 20 41  1  0
 21 42  1  0
M  END
>  <meeko>  (1) 
{"is_sidechain": false}

>  <smiles>  (1) 
Cc1cc(C(C)(C)C)ccc1-c1ccc(S(N)(=O)=O)cc1

>  <vina_score>  (1) 
-8.038

>  <job_id>  (1) 
b9c71fff4e20f05c

$$$$
