
     RDKit          3D

 34 35  0  0  0  0  0  0  0  0999 V2000
   52.5600   75.4880   27.1060 C   0  0  0  0  0  0  0  0  0  0  0  0
   52.7380   76.8610   27.4310 O   0  0  0  0  0  0  0  0  0  0  0  0
   53.8750   77.1920   28.1320 C   0  0  0  0  0  0  0  0  0  0  0  0
   54.3870   76.4700   29.2150 C   0  0  0  0  0  0  0  0  0  0  0  0
   55.5490   76.9010   29.8570 C   0  0  0  0  0  0  0  0  0  0  0  0
   56.2030   78.0520   29.4250 C   0  0  0  0  0  0  0  0  0  0  0  0
   55.6990   78.7800   28.3450 C   0  0  0  0  0  0  0  0  0  0  0  0
   54.5400   78.3580   27.6910 C   0  0  0  0  0  0  0  0  0  0  0  0
   53.9670   79.0430   26.5950 N   0  0  0  0  0  0  0  0  0  0  0  0
   54.4770   80.1190   25.9000 C   0  0  0  0  0  0  0  0  0  0  0  0
   55.5670   80.6530   26.0700 O   0  0  0  0  0  0  0  0  0  0  0  0
   53.5980   80.6370   24.8120 C   0  0  0  0  0  0  0  0  0  0  0  0
   53.3830   82.0100   24.6230 C   0  0  0  0  0  0  0  0  0  0  0  0
   52.5570   82.4560   23.5850 C   0  0  0  0  0  0  0  0  0  0  0  0
   51.9430   81.5340   22.7270 C   0  0  0  0  0  0  0  0  0  0  0  0
   51.0600   81.9590   21.6070 C   0  0  0  0  0  0  0  0  0  0  0  0
   50.3860   80.9820   20.9270 N   0  0  0  0  0  0  0  0  0  0  0  0
   50.9600   83.1330   21.2760 O   0  0  0  0  0  0  0  0  0  0  0  0
   52.1850   80.1650   22.8980 C   0  0  0  0  0  0  0  0  0  0  0  0
   53.0100   79.7190   23.9340 C   0  0  0  0  0  0  0  0  0  0  0  0
   52.4836   74.8990   28.0319 H   0  0  0  0  0  0  0  0  0  0  0  0
   51.6387   75.3670   26.5174 H   0  0  0  0  0  0  0  0  0  0  0  0
   53.4200   75.1360   26.5174 H   0  0  0  0  0  0  0  0  0  0  0  0
   53.8731   75.5611   29.5613 H   0  0  0  0  0  0  0  0  0  0  0  0
   55.9496   76.3294   30.7072 H   0  0  0  0  0  0  0  0  0  0  0  0
   57.1178   78.3882   29.9351 H   0  0  0  0  0  0  0  0  0  0  0  0
   56.2175   79.6898   28.0082 H   0  0  0  0  0  0  0  0  0  0  0  0
   53.1060   78.6150   26.2720 H   0  0  0  0  0  0  0  0  0  0  0  0
   53.8648   82.7380   25.2922 H   0  0  0  0  0  0  0  0  0  0  0  0
   52.3893   83.5337   23.4423 H   0  0  0  0  0  0  0  0  0  0  0  0
   50.6580   80.0110   20.9690 H   0  0  0  0  0  0  0  0  0  0  0  0
   49.8980   81.2890   20.0950 H   0  0  0  0  0  0  0  0  0  0  0  0
   51.7236   79.4377   22.2138 H   0  0  0  0  0  0  0  0  0  0  0  0
   53.1980   78.6425   24.0600 H   0  0  0  0  0  0  0  0  0  0  0  0
  1  2  1  0
  2  3  1  0
  3  4  2  0
  4  5  1  0
  5  6  2  0
  6  7  1  0
  7  8  2  0
  8  9  1  0
  9 10  1  0
 10 11  2  0
 10 12  1  0
 12 13  1  0
 13 14  2  0
 14 15  1  0
 15 16  1  0
 16 17  1  0
 16 18  2  0
 15 19  2  0
 19 20  1  0
  8  3  1  0
 20 12  2  0
  1 21  1  0
  1 22  1  0
  1 23  1  0
  4 24  1  0
  5 25  1  0
  6 26  1  0
  7 27  1  0
  9 28  1  0
 13 29  1  0
 14 30  1  0
 17 31  1  0
 17 32  1  0
 19 33  1  0
 20 34  1  0
M  END
>  <meeko>  (1) 
{"is_sidechain": false}

>  <smiles>  (1) 
COc1ccccc1NC(=O)c1ccc(C(N)=O)cc1

>  <vina_score>  (1) 
-8.392

>  <job_id>  (1) 
ba31335a55fe272e

$$$$
