
     RDKit          3D

 43 44  0  0  0  0  0  0  0  0999 V2000
   58.2090   81.3910   32.4380 C   0  0  0  0  0  0  0  0  0  0  0  0
   59.1310   81.1380   31.2520 C   0  0  0  0  0  0  0  0  0  0  0  0
   58.9340   82.2140   30.1890 C   0  0  0  0  0  0  0  0  0  0  0  0
   58.7890   79.8550   30.7200 O   0  0  0  0  0  0  0  0  0  0  0  0
   58.7870   79.7990   29.2920 C   0  0  0  0  0  0  0  0  0  0  0  0
   57.4200   79.4680   28.7450 C   0  0  0  0  0  0  0  0  0  0  0  0
   56.6630   78.4310   29.3040 C   0  0  0  0  0  0  0  0  0  0  0  0
   55.4070   78.1090   28.7830 C   0  0  0  0  0  0  0  0  0  0  0  0
   54.8870   78.8100   27.6860 C   0  0  0  0  0  0  0  0  0  0  0  0
   53.5280   78.4620   27.1230 C   0  0  0  0  0  0  0  0  0  0  0  0
   53.1240   79.2940   25.9240 C   0  0  0  0  0  0  0  0  0  0  0  0
   52.5590   80.5680   26.1000 C   0  0  0  0  0  0  0  0  0  0  0  0
   52.1870   81.3380   24.9970 C   0  0  0  0  0  0  0  0  0  0  0  0
   52.3700   80.8290   23.7090 C   0  0  0  0  0  0  0  0  0  0  0  0
   51.9320   81.8150   22.3090 S   0  0  0  0  0  0  0  0  0  0  0  0
   50.3380   81.3570   22.0460 N   0  0  0  0  0  0  0  0  0  0  0  0
   51.8850   83.2060   22.6970 O   0  0  0  0  0  0  0  0  0  0  0  0
   52.6700   81.3590   21.1550 O   0  0  0  0  0  0  0  0  0  0  0  0
   52.9390   79.5680   23.5160 C   0  0  0  0  0  0  0  0  0  0  0  0
   53.3110   78.8030   24.6230 C   0  0  0  0  0  0  0  0  0  0  0  0
   55.6490   79.8420   27.1220 C   0  0  0  0  0  0  0  0  0  0  0  0
   56.9030   80.1650   27.6440 C   0  0  0  0  0  0  0  0  0  0  0  0
   58.7657   81.2382   33.3743 H   0  0  0  0  0  0  0  0  0  0  0  0
   57.8354   82.4249   32.3980 H   0  0  0  0  0  0  0  0  0  0  0  0
   57.3601   80.6926   32.3980 H   0  0  0  0  0  0  0  0  0  0  0  0
   60.1848   81.1655   31.5663 H   0  0  0  0  0  0  0  0  0  0  0  0
   58.7565   83.1836   30.6772 H   0  0  0  0  0  0  0  0  0  0  0  0
   59.8352   82.2789   29.5616 H   0  0  0  0  0  0  0  0  0  0  0  0
   58.0683   81.9554   29.5616 H   0  0  0  0  0  0  0  0  0  0  0  0
   59.1012   80.7764   28.8971 H   0  0  0  0  0  0  0  0  0  0  0  0
   59.4810   79.0045   28.9805 H   0  0  0  0  0  0  0  0  0  0  0  0
   57.0601   77.8655   30.1599 H   0  0  0  0  0  0  0  0  0  0  0  0
   54.8205   77.2974   29.2382 H   0  0  0  0  0  0  0  0  0  0  0  0
   53.5396   77.4042   26.8214 H   0  0  0  0  0  0  0  0  0  0  0  0
   52.7937   78.6699   27.9152 H   0  0  0  0  0  0  0  0  0  0  0  0
   52.4085   80.9621   27.1159 H   0  0  0  0  0  0  0  0  0  0  0  0
   51.7529   82.3384   25.1408 H   0  0  0  0  0  0  0  0  0  0  0  0
   49.7180   81.9100   22.6380 H   0  0  0  0  0  0  0  0  0  0  0  0
   50.2430   80.3490   22.1740 H   0  0  0  0  0  0  0  0  0  0  0  0
   53.0930   79.1802   22.4982 H   0  0  0  0  0  0  0  0  0  0  0  0
   53.7543   77.8073   24.4741 H   0  0  0  0  0  0  0  0  0  0  0  0
   55.2559   80.4023   26.2609 H   0  0  0  0  0  0  0  0  0  0  0  0
   57.4911   80.9744   27.1868 H   0  0  0  0  0  0  0  0  0  0  0  0
  1  2  1  0
  2  3  1  0
  2  4  1  0
  4  5  1  0
  5  6  1  0
  6  7  1  0
  7  8  2  0
  8  9  1  0
  9 10  1  0
 10 11  1  0
 11 12  1  0
 12 13  2  0
 13 14  1  0
 14 15  1  0
 15 16  1  0
 15 17  2  0
 15 18  2  0
 14 19  2  0
 19 20  1  0
  9 21  2  0
 21 22  1  0
 22  6  2  0
 20 11  2  0
  1 23  1  0
  1 24  1  0
  1 25  1  0
  2 26  1  0
  3 27  1  0
  3 28  1  0
  3 29  1  0
  5 30  1  0
  5 31  1  0
  7 32  1  0
  8 33  1  0
 10 34  1  0
 10 35  1  0
 12 36  1  0
 13 37  1  0
 16 38  1  0
 16 39  1  0
 19 40  1  0
 20 41  1  0
 21 42  1  0
 22 43  1  0
M  END
>  <meeko>  (1) 
{"is_sidechain": false}

>  <smiles>  (1) 
CC(C)OCc1ccc(Cc2ccc(S(N)(=O)=O)cc2)cc1

>  <vina_score>  (1) 
-8.243

>  <job_id>  (1) 
ba5d8738cffb2c28

$$$$
