
     RDKit          3D

 39 40  0  0  0  0  0  0  0  0999 V2000
   54.1970   87.3100   25.8220 C   0  0  0  0  0  0  0  0  0  0  0  0
   54.0600   85.8850   25.6600 N   0  0  0  0  0  0  0  0  0  0  0  0
   54.9550   85.0220   26.2600 C   0  0  0  0  0  0  0  0  0  0  0  0
   55.9350   85.3980   26.8940 O   0  0  0  0  0  0  0  0  0  0  0  0
   54.6540   83.5680   26.1420 C   0  0  0  0  0  0  0  0  0  0  0  0
   53.3340   83.1440   26.2990 C   0  0  0  0  0  0  0  0  0  0  0  0
   53.0080   81.7850   26.1920 C   0  0  0  0  0  0  0  0  0  0  0  0
   53.9870   80.8110   25.9270 C   0  0  0  0  0  0  0  0  0  0  0  0
   53.6400   79.4110   25.8250 N   0  0  0  0  0  0  0  0  0  0  0  0
   54.0610   78.7050   24.6090 C   0  0  0  0  0  0  0  0  0  0  0  0
   53.0340   78.7240   26.8960 C   0  0  0  0  0  0  0  0  0  0  0  0
   51.8330   78.6540   27.1460 O   0  0  0  0  0  0  0  0  0  0  0  0
   53.9110   78.0220   27.8580 C   0  0  0  0  0  0  0  0  0  0  0  0
   54.9940   78.7320   28.3940 C   0  0  0  0  0  0  0  0  0  0  0  0
   55.8490   78.1050   29.2990 C   0  0  0  0  0  0  0  0  0  0  0  0
   55.6290   76.7740   29.6540 C   0  0  0  0  0  0  0  0  0  0  0  0
   54.5600   76.0630   29.1020 C   0  0  0  0  0  0  0  0  0  0  0  0
   53.6860   76.6750   28.1930 C   0  0  0  0  0  0  0  0  0  0  0  0
   52.5590   75.8920   27.5830 C   0  0  0  0  0  0  0  0  0  0  0  0
   55.3120   81.2590   25.8010 C   0  0  0  0  0  0  0  0  0  0  0  0
   55.6460   82.6180   25.9080 C   0  0  0  0  0  0  0  0  0  0  0  0
   54.2207   87.5566   26.8937 H   0  0  0  0  0  0  0  0  0  0  0  0
   55.1315   87.6448   25.3480 H   0  0  0  0  0  0  0  0  0  0  0  0
   53.3434   87.8167   25.3480 H   0  0  0  0  0  0  0  0  0  0  0  0
   53.1530   85.5280   25.3880 H   0  0  0  0  0  0  0  0  0  0  0  0
   52.5444   83.8808   26.5080 H   0  0  0  0  0  0  0  0  0  0  0  0
   51.9608   81.4728   26.3184 H   0  0  0  0  0  0  0  0  0  0  0  0
   54.6062   77.7907   24.8860 H   0  0  0  0  0  0  0  0  0  0  0  0
   53.1747   78.4376   24.0148 H   0  0  0  0  0  0  0  0  0  0  0  0
   54.7175   79.3576   24.0148 H   0  0  0  0  0  0  0  0  0  0  0  0
   55.1683   79.7782   28.1022 H   0  0  0  0  0  0  0  0  0  0  0  0
   56.6952   78.6585   29.7322 H   0  0  0  0  0  0  0  0  0  0  0  0
   56.3007   76.2814   30.3724 H   0  0  0  0  0  0  0  0  0  0  0  0
   54.4027   75.0115   29.3840 H   0  0  0  0  0  0  0  0  0  0  0  0
   51.9379   75.4605   28.3818 H   0  0  0  0  0  0  0  0  0  0  0  0
   51.9443   76.5586   26.9602 H   0  0  0  0  0  0  0  0  0  0  0  0
   52.9693   75.0834   26.9602 H   0  0  0  0  0  0  0  0  0  0  0  0
   56.1096   80.5250   25.6134 H   0  0  0  0  0  0  0  0  0  0  0  0
   56.6947   82.9342   25.8068 H   0  0  0  0  0  0  0  0  0  0  0  0
  1  2  1  0
  2  3  1  0
  3  4  2  0
  3  5  1  0
  5  6  1  0
  6  7  2  0
  7  8  1  0
  8  9  1  0
  9 10  1  0
  9 11  1  0
 11 12  2  0
 11 13  1  0
 13 14  2  0
 14 15  1  0
 15 16  2  0
 16 17  1  0
 17 18  2  0
 18 19  1  0
  8 20  2  0
 20 21  1  0
 21  5  2  0
 18 13  1  0
  1 22  1  0
  1 23  1  0
  1 24  1  0
  2 25  1  0
  6 26  1  0
  7 27  1  0
 10 28  1  0
 10 29  1  0
 10 30  1  0
 14 31  1  0
 15 32  1  0
 16 33  1  0
 17 34  1  0
 19 35  1  0
 19 36  1  0
 19 37  1  0
 20 38  1  0
 21 39  1  0
M  END
>  <meeko>  (1) 
{"is_sidechain": false}

>  <smiles>  (1) 
CNC(=O)c1ccc(N(C)C(=O)c2ccccc2C)cc1

>  <vina_score>  (1) 
-7.908

>  <job_id>  (1) 
ba62c8147cb2d58c

$$$$
