
     RDKit          3D

 40 42  0  0  0  0  0  0  0  0999 V2000
   53.1200   79.2010   26.8940 C   0  0  0  0  0  0  0  0  0  0  0  0
   53.4020   77.8650   27.5010 C   0  0  0  0  0  0  0  0  0  0  0  0
   54.4610   77.4990   28.2450 C   0  0  0  0  0  0  0  0  0  0  0  0
   55.6030   78.2930   28.6980 C   0  0  0  0  0  0  0  0  0  0  0  0
   55.9760   78.2950   30.0460 C   0  0  0  0  0  0  0  0  0  0  0  0
   57.0600   79.0620   30.4880 C   0  0  0  0  0  0  0  0  0  0  0  0
   57.7990   79.8540   29.5960 C   0  0  0  0  0  0  0  0  0  0  0  0
   58.9370   80.6630   30.0620 C   0  0  0  0  0  0  0  0  0  0  0  0
   59.2550   80.7400   31.4300 C   0  0  0  0  0  0  0  0  0  0  0  0
   60.3320   81.5100   31.8790 C   0  0  0  0  0  0  0  0  0  0  0  0
   61.1100   82.2050   30.9540 C   0  0  0  0  0  0  0  0  0  0  0  0
   62.4770   83.1890   31.5060 S   0  0  0  0  0  0  0  0  0  0  0  0
   63.7530   82.5040   30.6450 N   0  0  0  0  0  0  0  0  0  0  0  0
   62.7350   82.8810   32.8940 O   0  0  0  0  0  0  0  0  0  0  0  0
   62.2920   84.5390   31.0300 O   0  0  0  0  0  0  0  0  0  0  0  0
   60.8100   82.1560   29.5910 C   0  0  0  0  0  0  0  0  0  0  0  0
   59.7300   81.3850   29.1530 C   0  0  0  0  0  0  0  0  0  0  0  0
   57.4140   79.8560   28.2470 C   0  0  0  0  0  0  0  0  0  0  0  0
   56.3270   79.0920   27.8040 C   0  0  0  0  0  0  0  0  0  0  0  0
   54.2700   76.0510   28.5180 C   0  0  0  0  0  0  0  0  0  0  0  0
   55.0580   75.3570   29.1460 O   0  0  0  0  0  0  0  0  0  0  0  0
   52.9920   75.5350   27.9300 C   0  0  0  0  0  0  0  0  0  0  0  0
   52.4190   76.7600   27.2380 C   0  0  0  0  0  0  0  0  0  0  0  0
   52.9638   79.9410   27.6927 H   0  0  0  0  0  0  0  0  0  0  0  0
   53.9731   79.5082   26.2712 H   0  0  0  0  0  0  0  0  0  0  0  0
   52.2155   79.1372   26.2712 H   0  0  0  0  0  0  0  0  0  0  0  0
   55.4107   77.6866   30.7673 H   0  0  0  0  0  0  0  0  0  0  0  0
   57.3373   79.0437   31.5523 H   0  0  0  0  0  0  0  0  0  0  0  0
   58.6460   80.1850   32.1588 H   0  0  0  0  0  0  0  0  0  0  0  0
   60.5636   81.5671   32.9528 H   0  0  0  0  0  0  0  0  0  0  0  0
   64.2900   83.1870   30.1110 H   0  0  0  0  0  0  0  0  0  0  0  0
   63.3860   81.7580   30.0520 H   0  0  0  0  0  0  0  0  0  0  0  0
   61.4186   82.7194   28.8684 H   0  0  0  0  0  0  0  0  0  0  0  0
   59.4964   81.3423   28.0789 H   0  0  0  0  0  0  0  0  0  0  0  0
   57.9751   80.4677   27.5253 H   0  0  0  0  0  0  0  0  0  0  0  0
   56.0388   79.1197   26.7428 H   0  0  0  0  0  0  0  0  0  0  0  0
   53.1857   74.7273   27.2089 H   0  0  0  0  0  0  0  0  0  0  0  0
   52.3129   75.1012   28.6787 H   0  0  0  0  0  0  0  0  0  0  0  0
   52.3219   76.5809   26.1570 H   0  0  0  0  0  0  0  0  0  0  0  0
   51.4151   77.0086   27.6127 H   0  0  0  0  0  0  0  0  0  0  0  0
  1  2  1  0
  2  3  2  0
  3  4  1  0
  4  5  1  0
  5  6  2  0
  6  7  1  0
  7  8  1  0
  8  9  1  0
  9 10  2  0
 10 11  1  0
 11 12  1  0
 12 13  1  0
 12 14  2  0
 12 15  2  0
 11 16  2  0
 16 17  1  0
  7 18  2  0
 18 19  1  0
  3 20  1  0
 20 21  2  0
 20 22  1  0
 22 23  1  0
 23  2  1  0
 19  4  2  0
 17  8  2  0
  1 24  1  0
  1 25  1  0
  1 26  1  0
  5 27  1  0
  6 28  1  0
  9 29  1  0
 10 30  1  0
 13 31  1  0
 13 32  1  0
 16 33  1  0
 17 34  1  0
 18 35  1  0
 19 36  1  0
 22 37  1  0
 22 38  1  0
 23 39  1  0
 23 40  1  0
M  END
>  <meeko>  (1) 
{"is_sidechain": false}

>  <smiles>  (1) 
CC1=C(c2ccc(-c3ccc(S(N)(=O)=O)cc3)cc2)C(=O)CC1

>  <vina_score>  (1) 
-7.766

>  <job_id>  (1) 
ba62d6d07e234b1e

$$$$
