
     RDKit          3D

 36 37  0  0  0  0  0  0  0  0999 V2000
   61.6980   82.9680   30.9700 C   0  0  0  0  0  0  0  0  0  0  0  0
   60.3430   82.7540   31.3440 O   0  0  0  0  0  0  0  0  0  0  0  0
   59.6710   81.7630   30.6840 C   0  0  0  0  0  0  0  0  0  0  0  0
   58.9250   80.9160   31.5000 C   0  0  0  0  0  0  0  0  0  0  0  0
   58.1880   79.8570   30.9550 C   0  0  0  0  0  0  0  0  0  0  0  0
   58.1550   79.6390   29.5750 C   0  0  0  0  0  0  0  0  0  0  0  0
   57.4970   78.5630   28.9730 N   0  0  0  0  0  0  0  0  0  0  0  0
   56.0970   78.3100   29.2820 C   0  0  0  0  0  0  0  0  0  0  0  0
   55.2450   78.7320   28.1050 C   0  0  0  0  0  0  0  0  0  0  0  0
   54.0410   78.0610   27.8310 C   0  0  0  0  0  0  0  0  0  0  0  0
   53.2540   78.4300   26.7390 C   0  0  0  0  0  0  0  0  0  0  0  0
   53.6700   79.4790   25.9180 C   0  0  0  0  0  0  0  0  0  0  0  0
   52.6850   79.9530   24.5220 S   0  0  0  0  0  0  0  0  0  0  0  0
   53.6850   81.0820   23.7740 N   0  0  0  0  0  0  0  0  0  0  0  0
   52.5600   78.8160   23.6430 O   0  0  0  0  0  0  0  0  0  0  0  0
   51.5420   80.6990   24.9970 O   0  0  0  0  0  0  0  0  0  0  0  0
   54.8720   80.1480   26.1650 C   0  0  0  0  0  0  0  0  0  0  0  0
   55.6560   79.7730   27.2590 C   0  0  0  0  0  0  0  0  0  0  0  0
   58.9440   80.4730   28.7700 C   0  0  0  0  0  0  0  0  0  0  0  0
   59.6850   81.5330   29.3120 C   0  0  0  0  0  0  0  0  0  0  0  0
   62.3169   83.0657   31.8741 H   0  0  0  0  0  0  0  0  0  0  0  0
   62.0528   82.1148   30.3733 H   0  0  0  0  0  0  0  0  0  0  0  0
   61.7726   83.8891   30.3733 H   0  0  0  0  0  0  0  0  0  0  0  0
   58.9145   81.0810   32.5875 H   0  0  0  0  0  0  0  0  0  0  0  0
   57.6269   79.1870   31.6230 H   0  0  0  0  0  0  0  0  0  0  0  0
   57.6890   78.5090   27.9750 H   0  0  0  0  0  0  0  0  0  0  0  0
   55.9509   77.2372   29.4764 H   0  0  0  0  0  0  0  0  0  0  0  0
   55.8055   78.8833   30.1744 H   0  0  0  0  0  0  0  0  0  0  0  0
   53.7158   77.2372   28.4833 H   0  0  0  0  0  0  0  0  0  0  0  0
   52.3143   77.8988   26.5274 H   0  0  0  0  0  0  0  0  0  0  0  0
   54.6410   80.9470   24.1090 H   0  0  0  0  0  0  0  0  0  0  0  0
   53.6310   81.0540   22.7560 H   0  0  0  0  0  0  0  0  0  0  0  0
   55.1983   80.9637   25.5030 H   0  0  0  0  0  0  0  0  0  0  0  0
   56.6021   80.2976   27.4584 H   0  0  0  0  0  0  0  0  0  0  0  0
   58.9827   80.2912   27.6858 H   0  0  0  0  0  0  0  0  0  0  0  0
   60.2778   82.1832   28.6518 H   0  0  0  0  0  0  0  0  0  0  0  0
  1  2  1  0
  2  3  1  0
  3  4  1  0
  4  5  2  0
  5  6  1  0
  6  7  1  0
  7  8  1  0
  8  9  1  0
  9 10  1  0
 10 11  2  0
 11 12  1  0
 12 13  1  0
 13 14  1  0
 13 15  2  0
 13 16  2  0
 12 17  2  0
 17 18  1  0
  6 19  2  0
 19 20  1  0
 20  3  2  0
 18  9  2  0
  1 21  1  0
  1 22  1  0
  1 23  1  0
  4 24  1  0
  5 25  1  0
  7 26  1  0
  8 27  1  0
  8 28  1  0
 10 29  1  0
 11 30  1  0
 14 31  1  0
 14 32  1  0
 17 33  1  0
 18 34  1  0
 19 35  1  0
 20 36  1  0
M  END
>  <meeko>  (1) 
{"is_sidechain": false}

>  <smiles>  (1) 
COc1ccc(NCc2ccc(S(N)(=O)=O)cc2)cc1

>  <vina_score>  (1) 
-7.467

>  <job_id>  (1) 
ba6f61724abbfc21

$$$$
