
     RDKit          3D

 53 56  0  0  0  0  0  0  0  0999 V2000
   51.8100   79.8840   23.1340 N   0  0  0  0  0  0  0  0  0  0  0  0
   52.4910   80.8080   23.9720 C   0  0  0  0  0  0  0  0  0  0  0  0
   52.0030   82.1140   24.0490 C   0  0  0  0  0  0  0  0  0  0  0  0
   52.6680   83.0910   24.7870 C   0  0  0  0  0  0  0  0  0  0  0  0
   53.8410   82.7200   25.4480 C   0  0  0  0  0  0  0  0  0  0  0  0
   54.6680   83.4830   26.2390 N   0  0  0  0  0  0  0  0  0  0  0  0
   55.7010   82.7350   26.7190 C   0  0  0  0  0  0  0  0  0  0  0  0
   56.5830   83.2960   27.5370 O   0  0  0  0  0  0  0  0  0  0  0  0
   55.5580   81.4570   26.2190 C   0  0  0  0  0  0  0  0  0  0  0  0
   56.4580   80.4030   26.5560 C   0  0  0  0  0  0  0  0  0  0  0  0
   56.4640   79.7740   27.7400 C   0  0  0  0  0  0  0  0  0  0  0  0
   57.4810   78.7340   28.0210 C   0  0  0  0  0  0  0  0  0  0  0  0
   58.4850   78.7550   28.8360 N   0  0  0  0  0  0  0  0  0  0  0  0
   58.7210   79.8710   29.6500 C   0  0  0  0  0  0  0  0  0  0  0  0
   58.2830   79.8580   30.9780 C   0  0  0  0  0  0  0  0  0  0  0  0
   58.4810   80.9650   31.8060 C   0  0  0  0  0  0  0  0  0  0  0  0
   59.1020   82.1060   31.2890 C   0  0  0  0  0  0  0  0  0  0  0  0
   59.3680   83.5070   32.3390 S   0  0  0  0  0  0  0  0  0  0  0  0
   57.8110   84.1040   32.5200 N   0  0  0  0  0  0  0  0  0  0  0  0
   60.0990   84.5150   31.6100 O   0  0  0  0  0  0  0  0  0  0  0  0
   59.7750   83.0430   33.6440 O   0  0  0  0  0  0  0  0  0  0  0  0
   59.5420   82.1370   29.9640 C   0  0  0  0  0  0  0  0  0  0  0  0
   59.3370   81.0230   29.1460 C   0  0  0  0  0  0  0  0  0  0  0  0
   54.3880   81.4320   25.3800 C   0  0  0  0  0  0  0  0  0  0  0  0
   53.7460   80.4560   24.5600 C   0  0  0  0  0  0  0  0  0  0  0  0
   54.3010   79.1560   24.3670 N   0  0  0  0  0  0  0  0  0  0  0  0
   53.6040   78.0140   24.6380 N   0  0  0  0  0  0  0  0  0  0  0  0
   53.3100   77.6480   25.9020 C   0  0  0  0  0  0  0  0  0  0  0  0
   53.4700   78.2820   27.1160 C   0  0  0  0  0  0  0  0  0  0  0  0
   52.9760   77.4140   28.1220 C   0  0  0  0  0  0  0  0  0  0  0  0
   52.5250   76.2750   27.4930 C   0  0  0  0  0  0  0  0  0  0  0  0
   52.7260   76.4320   26.1450 N   0  0  0  0  0  0  0  0  0  0  0  0
   51.9350   80.2030   22.1650 H   0  0  0  0  0  0  0  0  0  0  0  0
   52.1440   78.9330   23.2620 H   0  0  0  0  0  0  0  0  0  0  0  0
   51.0765   82.3764   23.5172 H   0  0  0  0  0  0  0  0  0  0  0  0
   52.2823   84.1194   24.8470 H   0  0  0  0  0  0  0  0  0  0  0  0
   54.5270   84.4570   26.4610 H   0  0  0  0  0  0  0  0  0  0  0  0
   56.9890   82.5830   28.0630 H   0  0  0  0  0  0  0  0  0  0  0  0
   57.1911   80.0873   25.7991 H   0  0  0  0  0  0  0  0  0  0  0  0
   55.7139   80.0301   28.5027 H   0  0  0  0  0  0  0  0  0  0  0  0
   57.3644   77.8016   27.4492 H   0  0  0  0  0  0  0  0  0  0  0  0
   57.7768   78.9657   31.3749 H   0  0  0  0  0  0  0  0  0  0  0  0
   58.1515   80.9395   32.8552 H   0  0  0  0  0  0  0  0  0  0  0  0
   57.7690   84.7290   33.3260 H   0  0  0  0  0  0  0  0  0  0  0  0
   57.1440   83.3330   32.5630 H   0  0  0  0  0  0  0  0  0  0  0  0
   60.0457   83.0310   29.5676 H   0  0  0  0  0  0  0  0  0  0  0  0
   59.6627   81.0512   28.0957 H   0  0  0  0  0  0  0  0  0  0  0  0
   54.8170   79.1180   23.4890 H   0  0  0  0  0  0  0  0  0  0  0  0
   53.4650   77.3890   23.8360 H   0  0  0  0  0  0  0  0  0  0  0  0
   53.9027   79.2807   27.2751 H   0  0  0  0  0  0  0  0  0  0  0  0
   52.9565   77.6132   29.2036 H   0  0  0  0  0  0  0  0  0  0  0  0
   52.0824   75.3958   27.9840 H   0  0  0  0  0  0  0  0  0  0  0  0
   52.4860   75.7560   25.4350 H   0  0  0  0  0  0  0  0  0  0  0  0
  1  2  1  0
  2  3  2  0
  3  4  1  0
  4  5  2  0
  5  6  1  0
  6  7  1  0
  7  8  1  0
  7  9  2  0
  9 10  1  0
 10 11  2  3
 11 12  1  0
 12 13  2  3
 13 14  1  0
 14 15  1  0
 15 16  2  0
 16 17  1  0
 17 18  1  0
 18 19  1  0
 18 20  2  0
 18 21  2  0
 17 22  2  0
 22 23  1  0
  9 24  1  0
 24 25  2  0
 25 26  1  0
 26 27  1  0
 27 28  1  0
 28 29  2  0
 29 30  1  0
 30 31  2  0
 31 32  1  0
 25  2  1  0
 32 28  1  0
 24  5  1  0
 23 14  2  0
  1 33  1  0
  1 34  1  0
  3 35  1  0
  4 36  1  0
  6 37  1  0
  8 38  1  0
 10 39  1  0
 11 40  1  0
 12 41  1  0
 15 42  1  0
 16 43  1  0
 19 44  1  0
 19 45  1  0
 22 46  1  0
 23 47  1  0
 26 48  1  0
 27 49  1  0
 29 50  1  0
 30 51  1  0
 31 52  1  0
 32 53  1  0
M  END
>  <meeko>  (1) 
{"is_sidechain": false}

>  <smiles>  (1) 
Nc1ccc2[nH]c(O)c(C=CC=Nc3ccc(S(N)(=O)=O)cc3)c2c1NNc1ccc[nH]1

>  <vina_score>  (1) 
-8.675

>  <job_id>  (1) 
ba8daf59f0103103

$$$$
