
     RDKit          3D

 43 45  0  0  0  0  0  0  0  0999 V2000
   64.9270   83.3880   32.9620 C   0  0  0  0  0  0  0  0  0  0  0  0
   64.7420   83.4170   31.5130 N   0  0  0  0  0  0  0  0  0  0  0  0
   64.0650   82.2020   31.0200 C   0  0  0  0  0  0  0  0  0  0  0  0
   62.5630   82.1070   31.3530 C   0  0  0  0  0  0  0  0  0  0  0  0
   61.8280   83.3290   31.0000 N   0  0  0  0  0  0  0  0  0  0  0  0
   60.4330   83.3550   30.9240 C   0  0  0  0  0  0  0  0  0  0  0  0
   59.7590   84.3510   31.1760 O   0  0  0  0  0  0  0  0  0  0  0  0
   59.7190   82.1310   30.4980 C   0  0  0  0  0  0  0  0  0  0  0  0
   59.0100   81.3930   31.4450 C   0  0  0  0  0  0  0  0  0  0  0  0
   58.3100   80.2490   31.0510 C   0  0  0  0  0  0  0  0  0  0  0  0
   58.2980   79.8320   29.7140 C   0  0  0  0  0  0  0  0  0  0  0  0
   57.5780   78.7090   29.2720 N   0  0  0  0  0  0  0  0  0  0  0  0
   56.3000   78.5770   28.7020 C   0  0  0  0  0  0  0  0  0  0  0  0
   55.8440   79.3820   27.6510 C   0  0  0  0  0  0  0  0  0  0  0  0
   54.5490   79.2400   27.1420 C   0  0  0  0  0  0  0  0  0  0  0  0
   53.6850   78.2920   27.6860 C   0  0  0  0  0  0  0  0  0  0  0  0
   54.1170   77.4880   28.7370 C   0  0  0  0  0  0  0  0  0  0  0  0
   55.4130   77.6320   29.2400 C   0  0  0  0  0  0  0  0  0  0  0  0
   58.9940   80.6060   28.7700 C   0  0  0  0  0  0  0  0  0  0  0  0
   59.6970   81.7510   29.1540 C   0  0  0  0  0  0  0  0  0  0  0  0
   62.4740   84.5740   31.4210 C   0  0  0  0  0  0  0  0  0  0  0  0
   63.9770   84.6080   31.0840 C   0  0  0  0  0  0  0  0  0  0  0  0
   63.9573   83.5400   33.4586 H   0  0  0  0  0  0  0  0  0  0  0  0
   65.3424   82.4138   33.2592 H   0  0  0  0  0  0  0  0  0  0  0  0
   65.6206   84.1884   33.2592 H   0  0  0  0  0  0  0  0  0  0  0  0
   64.1736   82.1721   29.9258 H   0  0  0  0  0  0  0  0  0  0  0  0
   64.5455   81.3555   31.5324 H   0  0  0  0  0  0  0  0  0  0  0  0
   62.1312   81.2627   30.7956 H   0  0  0  0  0  0  0  0  0  0  0  0
   62.4709   81.9649   32.4399 H   0  0  0  0  0  0  0  0  0  0  0  0
   59.0015   81.7099   32.4983 H   0  0  0  0  0  0  0  0  0  0  0  0
   57.7591   79.6663   31.8040 H   0  0  0  0  0  0  0  0  0  0  0  0
   58.0900   77.8360   29.3250 H   0  0  0  0  0  0  0  0  0  0  0  0
   56.5153   80.1385   27.2185 H   0  0  0  0  0  0  0  0  0  0  0  0
   54.2123   79.8775   26.3112 H   0  0  0  0  0  0  0  0  0  0  0  0
   52.6662   78.1794   27.2868 H   0  0  0  0  0  0  0  0  0  0  0  0
   53.4384   76.7393   29.1716 H   0  0  0  0  0  0  0  0  0  0  0  0
   55.7436   76.9933   30.0723 H   0  0  0  0  0  0  0  0  0  0  0  0
   58.9853   80.3058   27.7118 H   0  0  0  0  0  0  0  0  0  0  0  0
   60.2305   82.3502   28.4015 H   0  0  0  0  0  0  0  0  0  0  0  0
   61.9804   85.4157   30.9131 H   0  0  0  0  0  0  0  0  0  0  0  0
   62.3772   84.6451   32.5144 H   0  0  0  0  0  0  0  0  0  0  0  0
   64.0798   84.7046   29.9931 H   0  0  0  0  0  0  0  0  0  0  0  0
   64.3970   85.4592   31.6399 H   0  0  0  0  0  0  0  0  0  0  0  0
  1  2  1  0
  2  3  1  0
  3  4  1  0
  4  5  1  0
  5  6  1  0
  6  7  2  0
  6  8  1  0
  8  9  1  0
  9 10  2  0
 10 11  1  0
 11 12  1  0
 12 13  1  0
 13 14  2  0
 14 15  1  0
 15 16  2  0
 16 17  1  0
 17 18  2  0
 11 19  2  0
 19 20  1  0
  5 21  1  0
 21 22  1  0
 22  2  1  0
 20  8  2  0
 18 13  1  0
  1 23  1  0
  1 24  1  0
  1 25  1  0
  3 26  1  0
  3 27  1  0
  4 28  1  0
  4 29  1  0
  9 30  1  0
 10 31  1  0
 12 32  1  0
 14 33  1  0
 15 34  1  0
 16 35  1  0
 17 36  1  0
 18 37  1  0
 19 38  1  0
 20 39  1  0
 21 40  1  0
 21 41  1  0
 22 42  1  0
 22 43  1  0
M  END
>  <meeko>  (1) 
{"is_sidechain": false}

>  <smiles>  (1) 
CN1CCN(C(=O)c2ccc(Nc3ccccc3)cc2)CC1

>  <vina_score>  (1) 
-7.831

>  <job_id>  (1) 
ba9f6e8b537d7a4b

$$$$
