
     RDKit          3D

 56 58  0  0  0  0  0  0  0  0999 V2000
   55.1850   76.5960   29.5200 C   0  0  0  0  0  0  0  0  0  0  0  0
   55.9000   77.8170   29.6570 O   0  0  0  0  0  0  0  0  0  0  0  0
   55.8530   78.6960   28.5950 C   0  0  0  0  0  0  0  0  0  0  0  0
   54.7980   78.7810   27.6740 C   0  0  0  0  0  0  0  0  0  0  0  0
   54.8130   79.7030   26.6130 C   0  0  0  0  0  0  0  0  0  0  0  0
   53.7310   79.7420   25.7170 N   0  0  0  0  0  0  0  0  0  0  0  0
   53.0570   81.0610   25.6510 C   0  0  0  0  0  0  0  0  0  0  0  0
   51.7420   80.9640   24.8370 C   0  0  0  0  0  0  0  0  0  0  0  0
   51.8610   80.3640   23.4860 N   0  0  0  0  0  0  0  0  0  0  0  0
   52.5600   81.2360   22.5290 C   0  0  0  0  0  0  0  0  0  0  0  0
   51.6170   82.0940   21.6720 C   0  0  0  0  0  0  0  0  0  0  0  0
   50.3110   81.5220   21.6520 O   0  0  0  0  0  0  0  0  0  0  0  0
   52.5580   79.0600   23.6320 C   0  0  0  0  0  0  0  0  0  0  0  0
   53.9060   79.1130   24.3930 C   0  0  0  0  0  0  0  0  0  0  0  0
   55.9420   80.5200   26.4970 C   0  0  0  0  0  0  0  0  0  0  0  0
   57.0010   80.4470   27.4140 C   0  0  0  0  0  0  0  0  0  0  0  0
   56.9750   79.5430   28.4760 C   0  0  0  0  0  0  0  0  0  0  0  0
   58.0030   79.4270   29.4220 N   0  0  0  0  0  0  0  0  0  0  0  0
   58.8720   80.3120   30.0390 C   0  0  0  0  0  0  0  0  0  0  0  0
   59.8070   80.9820   29.3600 N   0  0  0  0  0  0  0  0  0  0  0  0
   60.6010   81.8160   30.0530 C   0  0  0  0  0  0  0  0  0  0  0  0
   60.5190   82.0180   31.4160 C   0  0  0  0  0  0  0  0  0  0  0  0
   61.4380   82.9840   32.0890 C   0  0  0  0  0  0  0  0  0  0  0  0
   59.5170   81.2980   32.0540 C   0  0  0  0  0  0  0  0  0  0  0  0
   59.2570   81.3970   33.5500 C   0  0  0  0  0  0  0  0  0  0  0  0
   57.9900   80.9820   33.8790 F   0  0  0  0  0  0  0  0  0  0  0  0
   59.3100   82.6910   34.0080 F   0  0  0  0  0  0  0  0  0  0  0  0
   60.2800   80.5500   34.3180 C   0  0  0  0  0  0  0  0  0  0  0  0
   60.8100   79.5450   33.5800 F   0  0  0  0  0  0  0  0  0  0  0  0
   61.3200   81.2990   34.7710 F   0  0  0  0  0  0  0  0  0  0  0  0
   59.7220   79.9730   35.4150 F   0  0  0  0  0  0  0  0  0  0  0  0
   58.7090   80.4470   31.3650 N   0  0  0  0  0  0  0  0  0  0  0  0
   54.9501   76.1948   30.5169 H   0  0  0  0  0  0  0  0  0  0  0  0
   54.2508   76.7780   28.9685 H   0  0  0  0  0  0  0  0  0  0  0  0
   55.8009   75.8703   28.9685 H   0  0  0  0  0  0  0  0  0  0  0  0
   53.9354   78.1076   27.7852 H   0  0  0  0  0  0  0  0  0  0  0  0
   52.8257   81.3998   26.6716 H   0  0  0  0  0  0  0  0  0  0  0  0
   53.7285   81.7768   25.1542 H   0  0  0  0  0  0  0  0  0  0  0  0
   51.0315   80.3550   25.4152 H   0  0  0  0  0  0  0  0  0  0  0  0
   51.4142   82.0014   24.6749 H   0  0  0  0  0  0  0  0  0  0  0  0
   53.2245   81.9075   23.0924 H   0  0  0  0  0  0  0  0  0  0  0  0
   53.1121   80.5797   21.8403 H   0  0  0  0  0  0  0  0  0  0  0  0
   51.5630   83.1078   22.0954 H   0  0  0  0  0  0  0  0  0  0  0  0
   52.0057   82.1361   20.6438 H   0  0  0  0  0  0  0  0  0  0  0  0
   50.3940   80.6340   21.2630 H   0  0  0  0  0  0  0  0  0  0  0  0
   51.8886   78.3753   24.1733 H   0  0  0  0  0  0  0  0  0  0  0  0
   52.7971   78.7263   22.6115 H   0  0  0  0  0  0  0  0  0  0  0  0
   54.2862   78.0895   24.5265 H   0  0  0  0  0  0  0  0  0  0  0  0
   54.6202   79.7111   23.8079 H   0  0  0  0  0  0  0  0  0  0  0  0
   56.0011   81.2380   25.6657 H   0  0  0  0  0  0  0  0  0  0  0  0
   57.8671   81.1143   27.2935 H   0  0  0  0  0  0  0  0  0  0  0  0
   58.1540   78.4790   29.7480 H   0  0  0  0  0  0  0  0  0  0  0  0
   61.3677   82.3752   29.4967 H   0  0  0  0  0  0  0  0  0  0  0  0
   61.3415   82.8826   33.1801 H   0  0  0  0  0  0  0  0  0  0  0  0
   62.4754   82.7714   31.7913 H   0  0  0  0  0  0  0  0  0  0  0  0
   61.1740   84.0095   31.7913 H   0  0  0  0  0  0  0  0  0  0  0  0
  1  2  1  0
  2  3  1  0
  3  4  1  0
  4  5  2  0
  5  6  1  0
  6  7  1  0
  7  8  1  0
  8  9  1  0
  9 10  1  0
 10 11  1  0
 11 12  1  0
  9 13  1  0
 13 14  1  0
  5 15  1  0
 15 16  2  0
 16 17  1  0
 17 18  1  0
 18 19  1  0
 19 20  2  0
 20 21  1  0
 21 22  2  0
 22 23  1  0
 22 24  1  0
 24 25  1  0
 25 26  1  0
 25 27  1  0
 25 28  1  0
 28 29  1  0
 28 30  1  0
 28 31  1  0
 24 32  2  0
 17  3  2  0
 32 19  1  0
 14  6  1  0
  1 33  1  0
  1 34  1  0
  1 35  1  0
  4 36  1  0
  7 37  1  0
  7 38  1  0
  8 39  1  0
  8 40  1  0
 10 41  1  0
 10 42  1  0
 11 43  1  0
 11 44  1  0
 12 45  1  0
 13 46  1  0
 13 47  1  0
 14 48  1  0
 14 49  1  0
 15 50  1  0
 16 51  1  0
 18 52  1  0
 21 53  1  0
 23 54  1  0
 23 55  1  0
 23 56  1  0
M  END
>  <meeko>  (1) 
{"is_sidechain": false}

>  <smiles>  (1) 
COc1cc(N2CCN(CCO)CC2)ccc1Nc1ncc(C)c(C(F)(F)C(F)(F)F)n1

>  <vina_score>  (1) 
-8.539

>  <job_id>  (1) 
baa2728b2340a10b

$$$$
