
     RDKit          3D

 59 62  0  0  0  0  0  0  0  0999 V2000
   61.6500   79.5360   34.0200 C   0  0  0  0  0  0  0  0  0  0  0  0
   61.0330   80.6350   34.4840 C   0  0  0  0  0  0  0  0  0  0  0  0
   59.6840   80.6090   35.1320 C   0  0  0  0  0  0  0  0  0  0  0  0
   61.6110   81.9930   34.2680 C   0  0  0  0  0  0  0  0  0  0  0  0
   61.5630   82.8760   35.1150 O   0  0  0  0  0  0  0  0  0  0  0  0
   62.3310   82.2110   33.0820 N   0  0  0  0  0  0  0  0  0  0  0  0
   63.6920   82.0860   32.8900 C   0  0  0  0  0  0  0  0  0  0  0  0
   64.0820   82.5060   31.7090 N   0  0  0  0  0  0  0  0  0  0  0  0
   62.9360   82.8960   31.0780 C   0  0  0  0  0  0  0  0  0  0  0  0
   61.8330   82.7200   31.8900 C   0  0  0  0  0  0  0  0  0  0  0  0
   60.4360   82.8920   31.5750 C   0  0  0  0  0  0  0  0  0  0  0  0
   59.8090   83.8750   31.9580 O   0  0  0  0  0  0  0  0  0  0  0  0
   59.7160   81.8220   30.8220 C   0  0  0  0  0  0  0  0  0  0  0  0
   59.7390   81.7420   29.4270 C   0  0  0  0  0  0  0  0  0  0  0  0
   59.0480   80.7150   28.7700 C   0  0  0  0  0  0  0  0  0  0  0  0
   58.3060   79.7570   29.4800 C   0  0  0  0  0  0  0  0  0  0  0  0
   57.6830   78.7310   28.7630 N   0  0  0  0  0  0  0  0  0  0  0  0
   56.3560   78.4350   28.4700 C   0  0  0  0  0  0  0  0  0  0  0  0
   55.7310   77.6630   29.3780 N   0  0  0  0  0  0  0  0  0  0  0  0
   54.4340   77.3650   29.1480 C   0  0  0  0  0  0  0  0  0  0  0  0
   53.7390   77.8180   28.0590 C   0  0  0  0  0  0  0  0  0  0  0  0
   52.4520   77.4940   27.8800 F   0  0  0  0  0  0  0  0  0  0  0  0
   54.4450   78.6190   27.1910 C   0  0  0  0  0  0  0  0  0  0  0  0
   53.8570   79.1560   25.9670 C   0  0  0  0  0  0  0  0  0  0  0  0
   53.3050   78.4650   24.9060 C   0  0  0  0  0  0  0  0  0  0  0  0
   52.8980   79.3040   23.9150 N   0  0  0  0  0  0  0  0  0  0  0  0
   53.1780   80.5220   24.3330 C   0  0  0  0  0  0  0  0  0  0  0  0
   52.9460   81.7350   23.5080 C   0  0  0  0  0  0  0  0  0  0  0  0
   53.7190   80.4940   25.6080 N   0  0  0  0  0  0  0  0  0  0  0  0
   54.0090   81.6460   26.4670 C   0  0  0  0  0  0  0  0  0  0  0  0
   55.3360   82.3330   26.1490 C   0  0  0  0  0  0  0  0  0  0  0  0
   52.8440   82.6360   26.5240 C   0  0  0  0  0  0  0  0  0  0  0  0
   55.7480   78.9250   27.3790 N   0  0  0  0  0  0  0  0  0  0  0  0
   58.2880   79.8550   30.8740 C   0  0  0  0  0  0  0  0  0  0  0  0
   58.9740   80.8770   31.5400 C   0  0  0  0  0  0  0  0  0  0  0  0
   62.6425   79.6183   33.5528 H   0  0  0  0  0  0  0  0  0  0  0  0
   61.1629   78.5536   34.1072 H   0  0  0  0  0  0  0  0  0  0  0  0
   59.8024   80.6113   36.2256 H   0  0  0  0  0  0  0  0  0  0  0  0
   59.1118   81.4963   34.8233 H   0  0  0  0  0  0  0  0  0  0  0  0
   59.1464   79.7003   34.8233 H   0  0  0  0  0  0  0  0  0  0  0  0
   64.3777   81.6775   33.6469 H   0  0  0  0  0  0  0  0  0  0  0  0
   62.8963   83.2984   30.0550 H   0  0  0  0  0  0  0  0  0  0  0  0
   60.3005   82.4865   28.8436 H   0  0  0  0  0  0  0  0  0  0  0  0
   59.0877   80.6578   27.6722 H   0  0  0  0  0  0  0  0  0  0  0  0
   58.2820   78.1010   28.2480 H   0  0  0  0  0  0  0  0  0  0  0  0
   53.9091   76.7255   29.8729 H   0  0  0  0  0  0  0  0  0  0  0  0
   53.2064   77.3701   24.8669 H   0  0  0  0  0  0  0  0  0  0  0  0
   52.7805   82.6003   24.1667 H   0  0  0  0  0  0  0  0  0  0  0  0
   53.8250   81.9203   22.8731 H   0  0  0  0  0  0  0  0  0  0  0  0
   52.0607   81.5828   22.8731 H   0  0  0  0  0  0  0  0  0  0  0  0
   54.1302   81.2305   27.4783 H   0  0  0  0  0  0  0  0  0  0  0  0
   55.8462   82.5971   27.0871 H   0  0  0  0  0  0  0  0  0  0  0  0
   55.9716   81.6507   25.5655 H   0  0  0  0  0  0  0  0  0  0  0  0
   55.1457   83.2459   25.5655 H   0  0  0  0  0  0  0  0  0  0  0  0
   52.5942   82.8482   27.5740 H   0  0  0  0  0  0  0  0  0  0  0  0
   53.1317   83.5702   26.0195 H   0  0  0  0  0  0  0  0  0  0  0  0
   51.9685   82.2014   26.0195 H   0  0  0  0  0  0  0  0  0  0  0  0
   57.7235   79.1142   31.4593 H   0  0  0  0  0  0  0  0  0  0  0  0
   58.9297   80.9381   32.6374 H   0  0  0  0  0  0  0  0  0  0  0  0
  1  2  2  0
  2  3  1  0
  2  4  1  0
  4  5  2  0
  4  6  1  0
  6  7  1  0
  7  8  2  0
  8  9  1  0
  9 10  2  0
 10 11  1  0
 11 12  2  0
 11 13  1  0
 13 14  1  0
 14 15  2  0
 15 16  1  0
 16 17  1  0
 17 18  1  0
 18 19  2  0
 19 20  1  0
 20 21  2  0
 21 22  1  0
 21 23  1  0
 23 24  1  0
 24 25  2  0
 25 26  1  0
 26 27  2  0
 27 28  1  0
 27 29  1  0
 29 30  1  0
 30 31  1  0
 30 32  1  0
 23 33  2  0
 16 34  2  0
 34 35  1  0
 10  6  1  0
 35 13  2  0
 33 18  1  0
 29 24  1  0
  1 36  1  0
  1 37  1  0
  3 38  1  0
  3 39  1  0
  3 40  1  0
  7 41  1  0
  9 42  1  0
 14 43  1  0
 15 44  1  0
 17 45  1  0
 20 46  1  0
 25 47  1  0
 28 48  1  0
 28 49  1  0
 28 50  1  0
 30 51  1  0
 31 52  1  0
 31 53  1  0
 31 54  1  0
 32 55  1  0
 32 56  1  0
 32 57  1  0
 34 58  1  0
 35 59  1  0
M  END
>  <meeko>  (1) 
{"is_sidechain": false}

>  <smiles>  (1) 
C=C(C)C(=O)n1cncc1C(=O)c1ccc(Nc2ncc(F)c(-c3cnc(C)n3C(C)C)n2)cc1

>  <vina_score>  (1) 
-9.202

>  <job_id>  (1) 
bac3ff3883ad05da

$$$$
