
     RDKit          3D

 63 66  0  0  0  0  0  0  0  0999 V2000
   60.9440   79.8580   34.6650 C   0  0  0  0  0  0  0  0  0  0  0  0
   60.8230   81.0350   35.4510 O   0  0  0  0  0  0  0  0  0  0  0  0
   61.6050   82.1090   34.9230 C   0  0  0  0  0  0  0  0  0  0  0  0
   61.9600   81.8680   33.4280 C   0  0  0  0  0  0  0  0  0  0  0  0
   63.4840   82.0400   33.2710 C   0  0  0  0  0  0  0  0  0  0  0  0
   61.2700   82.7260   32.4260 N   0  0  0  0  0  0  0  0  0  0  0  0
   61.8530   82.5620   31.0660 C   0  0  0  0  0  0  0  0  0  0  0  0
   60.8570   82.4750   29.8950 C   0  0  0  0  0  0  0  0  0  0  0  0
   59.7760   81.4910   30.2540 C   0  0  0  0  0  0  0  0  0  0  0  0
   59.3610   80.5930   29.3330 N   0  0  0  0  0  0  0  0  0  0  0  0
   58.4040   79.7120   29.6920 C   0  0  0  0  0  0  0  0  0  0  0  0
   57.9290   78.7450   28.7900 N   0  0  0  0  0  0  0  0  0  0  0  0
   56.6140   78.2980   28.6790 C   0  0  0  0  0  0  0  0  0  0  0  0
   56.2170   77.1580   29.2680 N   0  0  0  0  0  0  0  0  0  0  0  0
   54.9190   76.8270   29.1430 C   0  0  0  0  0  0  0  0  0  0  0  0
   54.0090   77.5960   28.4680 C   0  0  0  0  0  0  0  0  0  0  0  0
   52.7260   77.2150   28.3840 F   0  0  0  0  0  0  0  0  0  0  0  0
   54.4860   78.7620   27.8980 C   0  0  0  0  0  0  0  0  0  0  0  0
   53.6940   79.6790   27.2060 N   0  0  0  0  0  0  0  0  0  0  0  0
   54.3460   80.5660   26.2380 C   0  0  2  0  0  0  0  0  0  0  0  0
   54.4640   81.9820   26.8260 C   0  0  0  0  0  0  0  0  0  0  0  0
   53.1180   82.7030   26.9410 C   0  0  0  0  0  0  0  0  0  0  0  0
   52.3240   82.7100   25.6290 C   0  0  1  0  0  0  0  0  0  0  0  0
   52.9350   83.6060   24.6450 N   0  0  0  0  0  0  0  0  0  0  0  0
   52.1980   81.2920   25.0590 C   0  0  0  0  0  0  0  0  0  0  0  0
   53.5420   80.5710   24.9290 C   0  0  0  0  0  0  0  0  0  0  0  0
   55.7800   79.1250   28.0170 N   0  0  0  0  0  0  0  0  0  0  0  0
   57.8400   79.7350   30.9730 C   0  0  0  0  0  0  0  0  0  0  0  0
   58.2680   80.6740   31.9090 C   0  0  0  0  0  0  0  0  0  0  0  0
   59.2620   81.5700   31.5450 C   0  0  0  0  0  0  0  0  0  0  0  0
   59.8020   82.6550   32.4310 C   0  0  0  0  0  0  0  0  0  0  0  0
   61.0339   78.9833   35.3260 H   0  0  0  0  0  0  0  0  0  0  0  0
   60.0525   79.7478   34.0302 H   0  0  0  0  0  0  0  0  0  0  0  0
   61.8393   79.9315   34.0302 H   0  0  0  0  0  0  0  0  0  0  0  0
   61.0331   83.0447   35.0091 H   0  0  0  0  0  0  0  0  0  0  0  0
   62.5416   82.1711   35.4965 H   0  0  0  0  0  0  0  0  0  0  0  0
   61.6023   80.8523   33.2035 H   0  0  0  0  0  0  0  0  0  0  0  0
   63.9514   82.0928   34.2654 H   0  0  0  0  0  0  0  0  0  0  0  0
   63.8947   81.1825   32.7178 H   0  0  0  0  0  0  0  0  0  0  0  0
   63.6933   82.9675   32.7178 H   0  0  0  0  0  0  0  0  0  0  0  0
   62.5128   83.4222   30.8798 H   0  0  0  0  0  0  0  0  0  0  0  0
   62.3642   81.5882   31.0850 H   0  0  0  0  0  0  0  0  0  0  0  0
   60.4117   83.4643   29.7133 H   0  0  0  0  0  0  0  0  0  0  0  0
   61.3773   82.1448   28.9838 H   0  0  0  0  0  0  0  0  0  0  0  0
   58.5200   77.9250   28.7770 H   0  0  0  0  0  0  0  0  0  0  0  0
   54.5713   75.8918   29.6062 H   0  0  0  0  0  0  0  0  0  0  0  0
   53.1400   80.1550   27.9150 H   0  0  0  0  0  0  0  0  0  0  0  0
   55.3613   80.2027   26.0209 H   0  0  0  0  0  0  0  0  0  0  0  0
   54.9073   81.9076   27.8300 H   0  0  0  0  0  0  0  0  0  0  0  0
   55.0911   82.5693   26.1391 H   0  0  0  0  0  0  0  0  0  0  0  0
   52.5160   82.1993   27.7116 H   0  0  0  0  0  0  0  0  0  0  0  0
   53.3289   83.7506   27.2018 H   0  0  0  0  0  0  0  0  0  0  0  0
   51.3144   83.0857   25.8517 H   0  0  0  0  0  0  0  0  0  0  0  0
   52.6980   83.3270   23.6950 H   0  0  0  0  0  0  0  0  0  0  0  0
   53.9500   83.5520   24.7150 H   0  0  0  0  0  0  0  0  0  0  0  0
   51.5493   80.7042   25.7250 H   0  0  0  0  0  0  0  0  0  0  0  0
   51.7777   81.3836   24.0466 H   0  0  0  0  0  0  0  0  0  0  0  0
   53.3542   79.5297   24.6283 H   0  0  0  0  0  0  0  0  0  0  0  0
   54.1362   81.1126   24.1783 H   0  0  0  0  0  0  0  0  0  0  0  0
   57.0572   79.0102   31.2412 H   0  0  0  0  0  0  0  0  0  0  0  0
   57.8266   80.7041   32.9161 H   0  0  0  0  0  0  0  0  0  0  0  0
   59.4036   83.6202   32.0851 H   0  0  0  0  0  0  0  0  0  0  0  0
   59.4882   82.4249   33.4599 H   0  0  0  0  0  0  0  0  0  0  0  0
  1  2  1  0
  2  3  1  0
  3  4  1  0
  4  5  1  0
  4  6  1  0
  6  7  1  0
  7  8  1  0
  8  9  1  0
  9 10  1  0
 10 11  2  0
 11 12  1  0
 12 13  1  0
 13 14  2  0
 14 15  1  0
 15 16  2  0
 16 17  1  0
 16 18  1  0
 18 19  1  0
 19 20  1  0
 20 21  1  0
 21 22  1  0
 22 23  1  0
 23 24  1  0
 23 25  1  0
 25 26  1  0
 18 27  2  0
 11 28  1  0
 28 29  2  0
 29 30  1  0
 30 31  1  0
 31  6  1  0
 30  9  2  0
 27 13  1  0
 26 20  1  0
  1 32  1  0
  1 33  1  0
  1 34  1  0
  3 35  1  0
  3 36  1  0
  4 37  1  0
  5 38  1  0
  5 39  1  0
  5 40  1  0
  7 41  1  0
  7 42  1  0
  8 43  1  0
  8 44  1  0
 12 45  1  0
 15 46  1  0
 19 47  1  0
 20 48  1  1
 21 49  1  0
 21 50  1  0
 22 51  1  0
 22 52  1  0
 23 53  1  6
 24 54  1  0
 24 55  1  0
 25 56  1  0
 25 57  1  0
 26 58  1  0
 26 59  1  0
 28 60  1  0
 29 61  1  0
 31 62  1  0
 31 63  1  0
M  END
>  <meeko>  (1) 
{"is_sidechain": false}

>  <smiles>  (1) 
COCC(C)N1CCc2nc(Nc3ncc(F)c(N[C@H]4CC[C@H](N)CC4)n3)ccc2C1

>  <vina_score>  (1) 
-8.526

>  <job_id>  (1) 
baf5012fe53d2a0d

$$$$
