
     RDKit          3D

 40 41  0  0  0  0  0  0  0  0999 V2000
   58.8280   80.2720   31.0690 C   0  0  0  0  0  0  0  0  0  0  0  0
   58.6000   80.4740   29.2830 S   0  0  0  0  0  0  0  0  0  0  0  0
   57.3820   79.1090   28.9170 C   0  0  0  0  0  0  0  0  0  0  0  0
   56.7070   78.7180   30.2480 C   0  0  0  0  0  0  0  0  0  0  0  0
   58.2170   77.8910   28.4610 C   0  0  0  0  0  0  0  0  0  0  0  0
   56.4150   79.5130   27.7940 C   0  0  0  0  0  0  0  0  0  0  0  0
   56.6580   80.6030   26.9450 C   0  0  0  0  0  0  0  0  0  0  0  0
   55.7540   80.9520   25.9300 C   0  0  0  0  0  0  0  0  0  0  0  0
   54.5750   80.2260   25.7220 C   0  0  0  0  0  0  0  0  0  0  0  0
   53.6300   80.5940   24.6540 C   0  0  0  0  0  0  0  0  0  0  0  0
   53.2850   81.9390   24.4250 C   0  0  0  0  0  0  0  0  0  0  0  0
   52.3910   82.2940   23.4110 C   0  0  0  0  0  0  0  0  0  0  0  0
   51.8250   81.2960   22.6170 C   0  0  0  0  0  0  0  0  0  0  0  0
   50.6950   81.7320   21.3220 S   0  0  0  0  0  0  0  0  0  0  0  0
   49.2150   81.3340   22.0210 N   0  0  0  0  0  0  0  0  0  0  0  0
   50.6850   83.1700   21.1840 O   0  0  0  0  0  0  0  0  0  0  0  0
   50.9140   80.8450   20.2050 O   0  0  0  0  0  0  0  0  0  0  0  0
   52.1580   79.9560   22.8120 C   0  0  0  0  0  0  0  0  0  0  0  0
   53.0530   79.6110   23.8300 C   0  0  0  0  0  0  0  0  0  0  0  0
   54.3260   79.1380   26.5670 C   0  0  0  0  0  0  0  0  0  0  0  0
   55.2260   78.7890   27.5820 C   0  0  0  0  0  0  0  0  0  0  0  0
   58.1089   80.9091   31.6048 H   0  0  0  0  0  0  0  0  0  0  0  0
   58.6612   79.2199   31.3433 H   0  0  0  0  0  0  0  0  0  0  0  0
   59.8523   80.5644   31.3433 H   0  0  0  0  0  0  0  0  0  0  0  0
   57.3208   79.0736   31.0887 H   0  0  0  0  0  0  0  0  0  0  0  0
   55.7093   79.1780   30.3021 H   0  0  0  0  0  0  0  0  0  0  0  0
   56.6096   77.6237   30.3021 H   0  0  0  0  0  0  0  0  0  0  0  0
   58.5881   77.3497   29.3437 H   0  0  0  0  0  0  0  0  0  0  0  0
   57.5878   77.2204   27.8574 H   0  0  0  0  0  0  0  0  0  0  0  0
   59.0694   78.2361   27.8574 H   0  0  0  0  0  0  0  0  0  0  0  0
   57.5751   81.1957   27.0775 H   0  0  0  0  0  0  0  0  0  0  0  0
   55.9764   81.8142   25.2841 H   0  0  0  0  0  0  0  0  0  0  0  0
   53.7268   82.7249   25.0553 H   0  0  0  0  0  0  0  0  0  0  0  0
   52.1360   83.3504   23.2405 H   0  0  0  0  0  0  0  0  0  0  0  0
   48.4690   81.7850   21.4890 H   0  0  0  0  0  0  0  0  0  0  0  0
   49.1660   81.5590   23.0140 H   0  0  0  0  0  0  0  0  0  0  0  0
   51.7205   79.1768   22.1706 H   0  0  0  0  0  0  0  0  0  0  0  0
   53.3099   78.5533   23.9888 H   0  0  0  0  0  0  0  0  0  0  0  0
   53.4081   78.5472   26.4316 H   0  0  0  0  0  0  0  0  0  0  0  0
   54.9985   77.9289   28.2289 H   0  0  0  0  0  0  0  0  0  0  0  0
  1  2  1  0
  2  3  1  0
  3  4  1  0
  3  5  1  0
  3  6  1  0
  6  7  1  0
  7  8  2  0
  8  9  1  0
  9 10  1  0
 10 11  1  0
 11 12  2  0
 12 13  1  0
 13 14  1  0
 14 15  1  0
 14 16  2  0
 14 17  2  0
 13 18  2  0
 18 19  1  0
  9 20  2  0
 20 21  1  0
 21  6  2  0
 19 10  2  0
  1 22  1  0
  1 23  1  0
  1 24  1  0
  4 25  1  0
  4 26  1  0
  4 27  1  0
  5 28  1  0
  5 29  1  0
  5 30  1  0
  7 31  1  0
  8 32  1  0
 11 33  1  0
 12 34  1  0
 15 35  1  0
 15 36  1  0
 18 37  1  0
 19 38  1  0
 20 39  1  0
 21 40  1  0
M  END
>  <meeko>  (1) 
{"is_sidechain": false}

>  <smiles>  (1) 
CSC(C)(C)c1ccc(-c2ccc(S(N)(=O)=O)cc2)cc1

>  <vina_score>  (1) 
-7.339

>  <job_id>  (1) 
bc13c5c6791d6f9b

$$$$
