
     RDKit          3D

 35 36  0  0  0  0  0  0  0  0999 V2000
   59.6830   82.5940   34.0200 N   0  0  0  0  0  0  0  0  0  0  0  0
   60.2180   83.1610   32.5330 S   0  0  0  0  0  0  0  0  0  0  0  0
   59.5440   84.4200   32.3210 O   0  0  0  0  0  0  0  0  0  0  0  0
   61.6580   83.0490   32.5630 O   0  0  0  0  0  0  0  0  0  0  0  0
   59.5610   81.9510   31.4230 C   0  0  0  0  0  0  0  0  0  0  0  0
   59.9560   81.9550   30.0850 C   0  0  0  0  0  0  0  0  0  0  0  0
   59.4520   80.9820   29.2150 C   0  0  0  0  0  0  0  0  0  0  0  0
   58.5720   79.9910   29.6680 C   0  0  0  0  0  0  0  0  0  0  0  0
   58.0110   79.0200   28.8210 N   0  0  0  0  0  0  0  0  0  0  0  0
   56.6840   78.6070   28.6140 C   0  0  0  0  0  0  0  0  0  0  0  0
   56.1870   77.5190   29.3440 C   0  0  0  0  0  0  0  0  0  0  0  0
   54.8850   77.0470   29.1470 C   0  0  0  0  0  0  0  0  0  0  0  0
   54.0450   77.6570   28.2110 C   0  0  0  0  0  0  0  0  0  0  0  0
   52.6410   77.1480   27.9890 C   0  0  0  0  0  0  0  0  0  0  0  0
   52.5760   75.8940   27.1280 C   0  0  0  0  0  0  0  0  0  0  0  0
   52.8540   74.7880   27.8600 F   0  0  0  0  0  0  0  0  0  0  0  0
   51.3370   75.7320   26.6020 F   0  0  0  0  0  0  0  0  0  0  0  0
   54.5370   78.7360   27.4680 C   0  0  0  0  0  0  0  0  0  0  0  0
   55.8410   79.2020   27.6700 C   0  0  0  0  0  0  0  0  0  0  0  0
   58.1950   80.0040   31.0220 C   0  0  0  0  0  0  0  0  0  0  0  0
   58.6900   80.9730   31.9010 C   0  0  0  0  0  0  0  0  0  0  0  0
   59.9680   81.6230   34.1430 H   0  0  0  0  0  0  0  0  0  0  0  0
   60.0040   83.2170   34.7620 H   0  0  0  0  0  0  0  0  0  0  0  0
   60.6583   82.7173   29.7168 H   0  0  0  0  0  0  0  0  0  0  0  0
   59.7521   80.9956   28.1568 H   0  0  0  0  0  0  0  0  0  0  0  0
   58.6800   78.5840   28.1960 H   0  0  0  0  0  0  0  0  0  0  0  0
   56.8329   77.0268   30.0860 H   0  0  0  0  0  0  0  0  0  0  0  0
   54.5199   76.1903   29.7324 H   0  0  0  0  0  0  0  0  0  0  0  0
   52.1946   76.9209   28.9683 H   0  0  0  0  0  0  0  0  0  0  0  0
   52.0933   77.9365   27.4521 H   0  0  0  0  0  0  0  0  0  0  0  0
   53.3194   76.0190   26.3269 H   0  0  0  0  0  0  0  0  0  0  0  0
   53.8938   79.2216   26.7194 H   0  0  0  0  0  0  0  0  0  0  0  0
   56.2094   80.0512   27.0758 H   0  0  0  0  0  0  0  0  0  0  0  0
   57.4989   79.2392   31.3968 H   0  0  0  0  0  0  0  0  0  0  0  0
   58.3945   80.9634   32.9605 H   0  0  0  0  0  0  0  0  0  0  0  0
  1  2  1  0
  2  3  2  0
  2  4  2  0
  2  5  1  0
  5  6  1  0
  6  7  2  0
  7  8  1  0
  8  9  1  0
  9 10  1  0
 10 11  1  0
 11 12  2  0
 12 13  1  0
 13 14  1  0
 14 15  1  0
 15 16  1  0
 15 17  1  0
 13 18  2  0
 18 19  1  0
  8 20  2  0
 20 21  1  0
 21  5  2  0
 19 10  2  0
  1 22  1  0
  1 23  1  0
  6 24  1  0
  7 25  1  0
  9 26  1  0
 11 27  1  0
 12 28  1  0
 14 29  1  0
 14 30  1  0
 15 31  1  0
 18 32  1  0
 19 33  1  0
 20 34  1  0
 21 35  1  0
M  END
>  <meeko>  (1) 
{"is_sidechain": false}

>  <smiles>  (1) 
NS(=O)(=O)c1ccc(Nc2ccc(CC(F)F)cc2)cc1

>  <vina_score>  (1) 
-8.183

>  <job_id>  (1) 
bc6e6561368401c6

$$$$
