
     RDKit          3D

 37 38  0  0  0  0  0  0  0  0999 V2000
   52.5600   76.1090   27.4540 C   0  0  0  0  0  0  0  0  0  0  0  0
   52.7570   77.2240   28.3140 O   0  0  0  0  0  0  0  0  0  0  0  0
   54.0030   77.7900   28.3140 C   0  0  0  0  0  0  0  0  0  0  0  0
   55.0640   77.4400   29.1490 C   0  0  0  0  0  0  0  0  0  0  0  0
   56.2900   78.1050   29.0440 C   0  0  0  0  0  0  0  0  0  0  0  0
   56.4750   79.1210   28.0970 C   0  0  0  0  0  0  0  0  0  0  0  0
   57.7850   79.8570   28.0150 C   0  0  0  0  0  0  0  0  0  0  0  0
   58.3560   80.0300   29.3270 N   0  0  0  0  0  0  0  0  0  0  0  0
   58.6660   81.2700   29.8230 C   0  0  0  0  0  0  0  0  0  0  0  0
   58.5610   82.2890   29.1450 O   0  0  0  0  0  0  0  0  0  0  0  0
   59.1500   81.3530   31.2430 C   0  0  0  0  0  0  0  0  0  0  0  0
   58.2160   80.9820   32.2330 C   0  0  0  0  0  0  0  0  0  0  0  0
   58.5520   81.0210   33.5850 C   0  0  0  0  0  0  0  0  0  0  0  0
   59.8220   81.4310   33.9530 C   0  0  0  0  0  0  0  0  0  0  0  0
   60.1520   81.4730   35.2490 F   0  0  0  0  0  0  0  0  0  0  0  0
   60.7660   81.8010   32.9980 C   0  0  0  0  0  0  0  0  0  0  0  0
   60.4450   81.7650   31.6330 C   0  0  0  0  0  0  0  0  0  0  0  0
   61.3340   82.1060   30.6450 O   0  0  0  0  0  0  0  0  0  0  0  0
   62.5690   82.7040   31.0280 C   0  0  0  0  0  0  0  0  0  0  0  0
   55.4040   79.4760   27.2710 C   0  0  0  0  0  0  0  0  0  0  0  0
   54.1810   78.8110   27.3790 C   0  0  0  0  0  0  0  0  0  0  0  0
   52.4001   75.2037   28.0581 H   0  0  0  0  0  0  0  0  0  0  0  0
   51.6793   76.2866   26.8193 H   0  0  0  0  0  0  0  0  0  0  0  0
   53.4482   75.9741   26.8193 H   0  0  0  0  0  0  0  0  0  0  0  0
   54.9362   76.6390   29.8920 H   0  0  0  0  0  0  0  0  0  0  0  0
   57.1183   77.8272   29.7124 H   0  0  0  0  0  0  0  0  0  0  0  0
   58.4839   79.2815   27.3902 H   0  0  0  0  0  0  0  0  0  0  0  0
   57.6061   80.8487   27.5740 H   0  0  0  0  0  0  0  0  0  0  0  0
   58.3590   79.2410   29.9640 H   0  0  0  0  0  0  0  0  0  0  0  0
   57.2085   80.6574   31.9337 H   0  0  0  0  0  0  0  0  0  0  0  0
   57.8173   80.7297   34.3501 H   0  0  0  0  0  0  0  0  0  0  0  0
   61.7686   82.1232   33.3159 H   0  0  0  0  0  0  0  0  0  0  0  0
   62.6359   82.7364   32.1255 H   0  0  0  0  0  0  0  0  0  0  0  0
   63.4038   82.1103   30.6271 H   0  0  0  0  0  0  0  0  0  0  0  0
   62.6209   83.7270   30.6271 H   0  0  0  0  0  0  0  0  0  0  0  0
   55.5255   80.2826   26.5330 H   0  0  0  0  0  0  0  0  0  0  0  0
   53.3478   79.0951   26.7194 H   0  0  0  0  0  0  0  0  0  0  0  0
  1  2  1  0
  2  3  1  0
  3  4  1  0
  4  5  2  0
  5  6  1  0
  6  7  1  0
  7  8  1  0
  8  9  1  0
  9 10  2  0
  9 11  1  0
 11 12  1  0
 12 13  2  0
 13 14  1  0
 14 15  1  0
 14 16  2  0
 16 17  1  0
 17 18  1  0
 18 19  1  0
  6 20  2  0
 20 21  1  0
 21  3  2  0
 17 11  2  0
  1 22  1  0
  1 23  1  0
  1 24  1  0
  4 25  1  0
  5 26  1  0
  7 27  1  0
  7 28  1  0
  8 29  1  0
 12 30  1  0
 13 31  1  0
 16 32  1  0
 19 33  1  0
 19 34  1  0
 19 35  1  0
 20 36  1  0
 21 37  1  0
M  END
>  <meeko>  (1) 
{"is_sidechain": false}

>  <smiles>  (1) 
COc1ccc(CNC(=O)c2ccc(F)cc2OC)cc1

>  <vina_score>  (1) 
-7.482

>  <job_id>  (1) 
bc892ae2341392a8

$$$$
