
     RDKit          3D

 47 49  0  0  0  0  0  0  0  0999 V2000
   58.0690   78.5520   28.0200 O   0  0  0  0  0  0  0  0  0  0  0  0
   57.2230   79.4390   28.0090 C   0  0  0  0  0  0  0  0  0  0  0  0
   57.4840   80.7650   28.2540 N   0  0  0  0  0  0  0  0  0  0  0  0
   58.7620   81.2150   28.7450 C   0  0  0  0  0  0  0  0  0  0  0  0
   58.6560   81.6110   30.1970 C   0  0  0  0  0  0  0  0  0  0  0  0
   58.5930   80.6260   31.1940 C   0  0  0  0  0  0  0  0  0  0  0  0
   58.4530   80.9820   32.5360 C   0  0  0  0  0  0  0  0  0  0  0  0
   58.3660   82.3270   32.8950 C   0  0  0  0  0  0  0  0  0  0  0  0
   58.4180   83.3090   31.9090 C   0  0  0  0  0  0  0  0  0  0  0  0
   58.2870   84.9680   32.3470 Cl  0  0  0  0  0  0  0  0  0  0  0  0
   58.5600   82.9590   30.5660 C   0  0  0  0  0  0  0  0  0  0  0  0
   55.8100   79.1160   27.6840 C   0  0  0  0  0  0  0  0  0  0  0  0
   55.2720   79.7450   26.5450 C   0  0  0  0  0  0  0  0  0  0  0  0
   53.9420   79.5560   26.1450 C   0  0  0  0  0  0  0  0  0  0  0  0
   53.4220   80.1820   25.0390 N   0  0  0  0  0  0  0  0  0  0  0  0
   52.7010   79.4890   23.9610 C   0  0  0  0  0  0  0  0  0  0  0  0
   51.9900   80.6100   23.1940 C   0  0  2  0  0  0  0  0  0  0  0  0
   51.8100   80.3170   21.8130 O   0  0  0  0  0  0  0  0  0  0  0  0
   52.9350   81.7980   23.3840 C   0  0  1  0  0  0  0  0  0  0  0  0
   52.2510   83.0220   23.1280 O   0  0  0  0  0  0  0  0  0  0  0  0
   53.3850   81.6300   24.8400 C   0  0  0  0  0  0  0  0  0  0  0  0
   53.1710   78.7020   26.9470 C   0  0  0  0  0  0  0  0  0  0  0  0
   53.6990   78.0500   28.0700 C   0  0  0  0  0  0  0  0  0  0  0  0
   55.0330   78.2310   28.4470 C   0  0  0  0  0  0  0  0  0  0  0  0
   55.5780   77.4710   29.6220 C   0  0  0  0  0  0  0  0  0  0  0  0
   56.3100   76.3460   29.1450 O   0  0  0  0  0  0  0  0  0  0  0  0
   56.6910   81.4000   28.3340 H   0  0  0  0  0  0  0  0  0  0  0  0
   59.4963   80.4023   28.6433 H   0  0  0  0  0  0  0  0  0  0  0  0
   59.0828   82.0887   28.1587 H   0  0  0  0  0  0  0  0  0  0  0  0
   58.6545   79.5636   30.9154 H   0  0  0  0  0  0  0  0  0  0  0  0
   58.4113   80.2021   33.3106 H   0  0  0  0  0  0  0  0  0  0  0  0
   58.2568   82.6107   33.9522 H   0  0  0  0  0  0  0  0  0  0  0  0
   58.5967   83.7430   29.7953 H   0  0  0  0  0  0  0  0  0  0  0  0
   55.9172   80.4071   25.9489 H   0  0  0  0  0  0  0  0  0  0  0  0
   53.4031   78.9535   23.3051 H   0  0  0  0  0  0  0  0  0  0  0  0
   51.9993   78.7337   24.3446 H   0  0  0  0  0  0  0  0  0  0  0  0
   50.9684   80.7817   23.5640 H   0  0  0  0  0  0  0  0  0  0  0  0
   51.0260   80.8270   21.5370 H   0  0  0  0  0  0  0  0  0  0  0  0
   53.7923   81.8272   22.6954 H   0  0  0  0  0  0  0  0  0  0  0  0
   52.8430   83.5750   22.5880 H   0  0  0  0  0  0  0  0  0  0  0  0
   54.3811   82.0705   24.9938 H   0  0  0  0  0  0  0  0  0  0  0  0
   52.7137   82.1359   25.5496 H   0  0  0  0  0  0  0  0  0  0  0  0
   52.1151   78.5381   26.6857 H   0  0  0  0  0  0  0  0  0  0  0  0
   53.0538   77.3858   28.6637 H   0  0  0  0  0  0  0  0  0  0  0  0
   56.2431   78.1231   30.2071 H   0  0  0  0  0  0  0  0  0  0  0  0
   54.7506   77.1325   30.2630 H   0  0  0  0  0  0  0  0  0  0  0  0
   57.1900   76.4060   29.5600 H   0  0  0  0  0  0  0  0  0  0  0  0
  1  2  2  0
  2  3  1  0
  3  4  1  0
  4  5  1  0
  5  6  2  0
  6  7  1  0
  7  8  2  0
  8  9  1  0
  9 10  1  0
  9 11  2  0
  2 12  1  0
 12 13  1  0
 13 14  2  0
 14 15  1  0
 15 16  1  0
 16 17  1  0
 17 18  1  0
 17 19  1  0
 19 20  1  0
 19 21  1  0
 14 22  1  0
 22 23  2  0
 23 24  1  0
 24 25  1  0
 25 26  1  0
 11  5  1  0
 24 12  2  0
 21 15  1  0
  3 27  1  0
  4 28  1  0
  4 29  1  0
  6 30  1  0
  7 31  1  0
  8 32  1  0
 11 33  1  0
 13 34  1  0
 16 35  1  0
 16 36  1  0
 17 37  1  1
 18 38  1  0
 19 39  1  6
 20 40  1  0
 21 41  1  0
 21 42  1  0
 22 43  1  0
 23 44  1  0
 25 45  1  0
 25 46  1  0
 26 47  1  0
M  END
>  <meeko>  (1) 
{"is_sidechain": false}

>  <smiles>  (1) 
O=C(NCc1cccc(Cl)c1)c1cc(N2C[C@H](O)[C@@H](O)C2)ccc1CO

>  <vina_score>  (1) 
-8.428

>  <job_id>  (1) 
bc90b28d7c069d56

$$$$
