
     RDKit          3D

 42 45  0  0  0  0  0  0  0  0999 V2000
   57.8350   87.1330   30.2700 C   0  0  0  0  0  0  0  0  0  0  0  0
   58.1850   85.7270   30.3730 N   0  0  0  0  0  0  0  0  0  0  0  0
   58.6010   85.0620   31.8510 S   0  0  0  0  0  0  0  0  0  0  0  0
   57.4350   85.1850   32.6990 O   0  0  0  0  0  0  0  0  0  0  0  0
   59.8870   85.5950   32.2420 O   0  0  0  0  0  0  0  0  0  0  0  0
   58.8040   83.3420   31.4540 C   0  0  0  0  0  0  0  0  0  0  0  0
   59.4860   82.5140   32.3480 C   0  0  0  0  0  0  0  0  0  0  0  0
   59.6760   81.1620   32.0550 C   0  0  0  0  0  0  0  0  0  0  0  0
   59.1730   80.6830   30.8390 C   0  0  0  0  0  0  0  0  0  0  0  0
   59.2140   79.4160   30.3010 N   0  0  0  0  0  0  0  0  0  0  0  0
   58.6070   79.3920   29.0760 C   0  0  0  0  0  0  0  0  0  0  0  0
   58.5600   78.2550   28.3950 O   0  0  0  0  0  0  0  0  0  0  0  0
   58.1580   80.6680   28.8080 C   0  0  0  0  0  0  0  0  0  0  0  0
   57.4350   81.0380   27.6380 C   0  0  0  0  0  0  0  0  0  0  0  0
   56.3020   80.5040   27.1580 C   0  0  0  0  0  0  0  0  0  0  0  0
   55.6790   80.8670   25.9640 N   0  0  0  0  0  0  0  0  0  0  0  0
   54.6380   80.0060   25.6670 C   0  0  0  0  0  0  0  0  0  0  0  0
   54.4440   79.1320   26.6660 C   0  0  0  0  0  0  0  0  0  0  0  0
   55.4550   79.4160   27.6710 C   0  0  0  0  0  0  0  0  0  0  0  0
   55.4370   78.7320   28.8200 C   0  0  0  0  0  0  0  0  0  0  0  0
   54.4370   77.6550   29.1040 C   0  0  0  0  0  0  0  0  0  0  0  0
   53.5710   77.3480   27.9800 N   0  0  0  0  0  0  0  0  0  0  0  0
   53.4700   78.0490   26.8090 C   0  0  0  0  0  0  0  0  0  0  0  0
   52.6360   77.7790   25.9530 O   0  0  0  0  0  0  0  0  0  0  0  0
   58.5020   81.4960   29.9200 C   0  0  0  0  0  0  0  0  0  0  0  0
   58.3140   82.8570   30.2330 C   0  0  0  0  0  0  0  0  0  0  0  0
   57.7289   87.5593   31.2785 H   0  0  0  0  0  0  0  0  0  0  0  0
   58.6271   87.6692   29.7268 H   0  0  0  0  0  0  0  0  0  0  0  0
   56.8840   87.2353   29.7268 H   0  0  0  0  0  0  0  0  0  0  0  0
   58.5590   85.2390   29.5620 H   0  0  0  0  0  0  0  0  0  0  0  0
   59.8760   82.9294   33.2889 H   0  0  0  0  0  0  0  0  0  0  0  0
   60.2024   80.4964   32.7549 H   0  0  0  0  0  0  0  0  0  0  0  0
   59.6360   78.6090   30.7350 H   0  0  0  0  0  0  0  0  0  0  0  0
   58.9710   78.4220   27.5270 H   0  0  0  0  0  0  0  0  0  0  0  0
   57.8599   81.8674   27.0535 H   0  0  0  0  0  0  0  0  0  0  0  0
   56.1900   81.3380   25.2290 H   0  0  0  0  0  0  0  0  0  0  0  0
   54.0494   80.0341   24.7382 H   0  0  0  0  0  0  0  0  0  0  0  0
   56.1877   78.9706   29.5878 H   0  0  0  0  0  0  0  0  0  0  0  0
   54.9817   76.7406   29.3820 H   0  0  0  0  0  0  0  0  0  0  0  0
   53.7911   78.0234   29.9147 H   0  0  0  0  0  0  0  0  0  0  0  0
   52.8910   76.6060   28.0790 H   0  0  0  0  0  0  0  0  0  0  0  0
   57.7927   83.5263   29.5328 H   0  0  0  0  0  0  0  0  0  0  0  0
  1  2  1  0
  2  3  1  0
  3  4  2  0
  3  5  2  0
  3  6  1  0
  6  7  2  0
  7  8  1  0
  8  9  2  0
  9 10  1  0
 10 11  1  0
 11 12  1  0
 11 13  2  0
 13 14  1  0
 14 15  2  3
 15 16  1  0
 16 17  1  0
 17 18  2  0
 18 19  1  0
 19 20  2  0
 20 21  1  0
 21 22  1  0
 22 23  1  0
 23 24  2  0
 13 25  1  0
 25 26  2  0
 26  6  1  0
 25  9  1  0
 19 15  1  0
 23 18  1  0
  1 27  1  0
  1 28  1  0
  1 29  1  0
  2 30  1  0
  7 31  1  0
  8 32  1  0
 10 33  1  0
 12 34  1  0
 14 35  1  0
 16 36  1  0
 17 37  1  0
 20 38  1  0
 21 39  1  0
 21 40  1  0
 22 41  1  0
 26 42  1  0
M  END
>  <meeko>  (1) 
{"is_sidechain": false}

>  <smiles>  (1) 
CNS(=O)(=O)c1ccc2[nH]c(O)c(C=c3[nH]cc4c3=CCNC4=O)c2c1

>  <vina_score>  (1) 
-7.836

>  <job_id>  (1) 
bc9612a259ebba49

$$$$
