
     RDKit          3D

 38 39  0  0  0  0  0  0  0  0999 V2000
   58.2240   80.2100   31.0880 C   0  0  0  0  0  0  0  0  0  0  0  0
   58.5770   79.8580   29.6410 C   0  0  0  0  0  0  0  0  0  0  0  0
   59.4720   80.9340   29.0210 C   0  0  0  0  0  0  0  0  0  0  0  0
   57.3340   79.6200   28.8070 C   0  0  0  0  0  0  0  0  0  0  0  0
   57.0610   80.3680   27.6550 C   0  0  0  0  0  0  0  0  0  0  0  0
   55.9020   80.1270   26.9030 C   0  0  0  0  0  0  0  0  0  0  0  0
   54.9900   79.1320   27.2720 C   0  0  0  0  0  0  0  0  0  0  0  0
   53.7990   78.8860   26.5680 N   0  0  0  0  0  0  0  0  0  0  0  0
   53.1890   79.5500   25.4900 C   0  0  0  0  0  0  0  0  0  0  0  0
   53.2560   78.9700   24.2120 C   0  0  0  0  0  0  0  0  0  0  0  0
   52.7010   79.6070   23.0980 C   0  0  0  0  0  0  0  0  0  0  0  0
   52.0660   80.8380   23.2580 C   0  0  0  0  0  0  0  0  0  0  0  0
   51.3890   81.6680   21.8520 S   0  0  0  0  0  0  0  0  0  0  0  0
   49.7480   81.3570   22.0200 N   0  0  0  0  0  0  0  0  0  0  0  0
   51.5430   83.0940   22.0200 O   0  0  0  0  0  0  0  0  0  0  0  0
   51.8000   80.9820   20.6490 O   0  0  0  0  0  0  0  0  0  0  0  0
   52.0010   81.4430   24.5130 C   0  0  0  0  0  0  0  0  0  0  0  0
   52.5620   80.7960   25.6200 C   0  0  0  0  0  0  0  0  0  0  0  0
   55.2630   78.3900   28.4260 C   0  0  0  0  0  0  0  0  0  0  0  0
   56.4150   78.6330   29.1720 C   0  0  0  0  0  0  0  0  0  0  0  0
   56.6280   77.8910   30.2700 F   0  0  0  0  0  0  0  0  0  0  0  0
   58.8338   79.6020   31.7725 H   0  0  0  0  0  0  0  0  0  0  0  0
   58.4264   81.2765   31.2658 H   0  0  0  0  0  0  0  0  0  0  0  0
   57.1581   80.0045   31.2658 H   0  0  0  0  0  0  0  0  0  0  0  0
   59.1434   78.9151   29.6529 H   0  0  0  0  0  0  0  0  0  0  0  0
   59.9550   81.5147   29.8207 H   0  0  0  0  0  0  0  0  0  0  0  0
   60.2426   80.4559   28.3984 H   0  0  0  0  0  0  0  0  0  0  0  0
   58.8616   81.6046   28.3984 H   0  0  0  0  0  0  0  0  0  0  0  0
   57.7630   81.1528   27.3366 H   0  0  0  0  0  0  0  0  0  0  0  0
   55.7061   80.7320   26.0055 H   0  0  0  0  0  0  0  0  0  0  0  0
   53.2860   78.0760   26.8970 H   0  0  0  0  0  0  0  0  0  0  0  0
   53.7540   77.9974   24.0857 H   0  0  0  0  0  0  0  0  0  0  0  0
   52.7648   79.1409   22.1037 H   0  0  0  0  0  0  0  0  0  0  0  0
   49.5060   81.3000   23.0090 H   0  0  0  0  0  0  0  0  0  0  0  0
   49.4970   80.5250   21.4850 H   0  0  0  0  0  0  0  0  0  0  0  0
   51.5125   82.4214   24.6319 H   0  0  0  0  0  0  0  0  0  0  0  0
   52.5097   81.2741   26.6093 H   0  0  0  0  0  0  0  0  0  0  0  0
   54.5612   77.6066   28.7481 H   0  0  0  0  0  0  0  0  0  0  0  0
  1  2  1  0
  2  3  1  0
  2  4  1  0
  4  5  1  0
  5  6  2  0
  6  7  1  0
  7  8  1  0
  8  9  1  0
  9 10  1  0
 10 11  2  0
 11 12  1  0
 12 13  1  0
 13 14  1  0
 13 15  2  0
 13 16  2  0
 12 17  2  0
 17 18  1  0
  7 19  2  0
 19 20  1  0
 20 21  1  0
 20  4  2  0
 18  9  2  0
  1 22  1  0
  1 23  1  0
  1 24  1  0
  2 25  1  0
  3 26  1  0
  3 27  1  0
  3 28  1  0
  5 29  1  0
  6 30  1  0
  8 31  1  0
 10 32  1  0
 11 33  1  0
 14 34  1  0
 14 35  1  0
 17 36  1  0
 18 37  1  0
 19 38  1  0
M  END
>  <meeko>  (1) 
{"is_sidechain": false}

>  <smiles>  (1) 
CC(C)c1ccc(Nc2ccc(S(N)(=O)=O)cc2)cc1F

>  <vina_score>  (1) 
-8.113

>  <job_id>  (1) 
bcac77e7e930d4d6

$$$$
