
     RDKit          3D

 53 55  0  0  0  0  0  0  0  0999 V2000
   62.3890   81.7230   37.4550 C   0  0  0  0  0  0  0  0  0  0  0  0
   61.1850   81.6210   36.6830 N   0  0  0  0  0  0  0  0  0  0  0  0
   60.7250   80.4410   36.1940 C   0  0  0  0  0  0  0  0  0  0  0  0
   61.1910   79.3520   36.5010 O   0  0  0  0  0  0  0  0  0  0  0  0
   59.6670   80.6090   35.3210 N   0  0  0  0  0  0  0  0  0  0  0  0
   59.8530   81.4390   34.0330 S   0  0  0  0  0  0  0  0  0  0  0  0
   61.0210   80.6070   32.9710 C   0  0  0  0  0  0  0  0  0  0  0  0
   60.2550   82.8370   34.0670 O   0  0  0  0  0  0  0  0  0  0  0  0
   58.3100   81.3970   33.1170 C   0  0  0  0  0  0  0  0  0  0  0  0
   58.5310   81.1830   31.6430 C   0  0  0  0  0  0  0  0  0  0  0  0
   59.2840   82.0860   30.8890 C   0  0  0  0  0  0  0  0  0  0  0  0
   59.4700   81.8760   29.5250 C   0  0  0  0  0  0  0  0  0  0  0  0
   58.9060   80.7560   28.9080 C   0  0  0  0  0  0  0  0  0  0  0  0
   58.1570   79.8210   29.6360 C   0  0  0  0  0  0  0  0  0  0  0  0
   57.5920   78.7390   28.9530 N   0  0  0  0  0  0  0  0  0  0  0  0
   56.2880   78.3160   28.7150 C   0  0  0  0  0  0  0  0  0  0  0  0
   55.6600   77.4520   29.5300 N   0  0  0  0  0  0  0  0  0  0  0  0
   54.3920   77.1180   29.2150 C   0  0  0  0  0  0  0  0  0  0  0  0
   53.7300   77.6070   28.1210 C   0  0  0  0  0  0  0  0  0  0  0  0
   52.4550   77.2670   27.8840 F   0  0  0  0  0  0  0  0  0  0  0  0
   54.4380   78.4800   27.3240 C   0  0  0  0  0  0  0  0  0  0  0  0
   53.8720   79.1080   26.1160 C   0  0  0  0  0  0  0  0  0  0  0  0
   53.8010   78.3560   24.9230 C   0  0  0  0  0  0  0  0  0  0  0  0
   53.2840   78.9070   23.7530 C   0  0  0  0  0  0  0  0  0  0  0  0
   52.8250   80.2140   23.7670 C   0  0  0  0  0  0  0  0  0  0  0  0
   52.3250   80.7480   22.6450 F   0  0  0  0  0  0  0  0  0  0  0  0
   52.8640   80.9810   24.9270 C   0  0  0  0  0  0  0  0  0  0  0  0
   53.3810   80.4360   26.1080 C   0  0  0  0  0  0  0  0  0  0  0  0
   53.4210   81.1050   27.3070 O   0  0  0  0  0  0  0  0  0  0  0  0
   53.3100   82.5230   27.2770 C   0  0  0  0  0  0  0  0  0  0  0  0
   55.7110   78.8530   27.6260 N   0  0  0  0  0  0  0  0  0  0  0  0
   57.9800   80.0550   31.0040 C   0  0  0  0  0  0  0  0  0  0  0  0
   62.1405   81.7019   38.5264 H   0  0  0  0  0  0  0  0  0  0  0  0
   63.0509   80.8777   37.2154 H   0  0  0  0  0  0  0  0  0  0  0  0
   62.8993   82.6676   37.2154 H   0  0  0  0  0  0  0  0  0  0  0  0
   60.7870   82.4240   36.2200 H   0  0  0  0  0  0  0  0  0  0  0  0
   61.7637   80.0779   33.5862 H   0  0  0  0  0  0  0  0  0  0  0  0
   60.4886   79.8836   32.3361 H   0  0  0  0  0  0  0  0  0  0  0  0
   61.5307   81.3466   32.3361 H   0  0  0  0  0  0  0  0  0  0  0  0
   57.6894   80.5760   33.5053 H   0  0  0  0  0  0  0  0  0  0  0  0
   57.8128   82.3696   33.2469 H   0  0  0  0  0  0  0  0  0  0  0  0
   59.7316   82.9659   31.3742 H   0  0  0  0  0  0  0  0  0  0  0  0
   60.0605   82.5912   28.9335 H   0  0  0  0  0  0  0  0  0  0  0  0
   59.0529   80.6049   27.8284 H   0  0  0  0  0  0  0  0  0  0  0  0
   58.2310   78.0470   28.5900 H   0  0  0  0  0  0  0  0  0  0  0  0
   53.8608   76.4144   29.8728 H   0  0  0  0  0  0  0  0  0  0  0  0
   54.1604   77.3164   24.9176 H   0  0  0  0  0  0  0  0  0  0  0  0
   53.2407   78.3116   22.8291 H   0  0  0  0  0  0  0  0  0  0  0  0
   52.4888   82.0150   24.9161 H   0  0  0  0  0  0  0  0  0  0  0  0
   53.2797   82.9103   28.3061 H   0  0  0  0  0  0  0  0  0  0  0  0
   54.1777   82.9477   26.7508 H   0  0  0  0  0  0  0  0  0  0  0  0
   52.3868   82.8075   26.7508 H   0  0  0  0  0  0  0  0  0  0  0  0
   57.3939   79.3378   31.5974 H   0  0  0  0  0  0  0  0  0  0  0  0
  1  2  1  0
  2  3  1  0
  3  4  2  0
  3  5  1  0
  5  6  2  0
  6  7  1  0
  6  8  2  0
  6  9  1  0
  9 10  1  0
 10 11  2  0
 11 12  1  0
 12 13  2  0
 13 14  1  0
 14 15  1  0
 15 16  1  0
 16 17  2  0
 17 18  1  0
 18 19  2  0
 19 20  1  0
 19 21  1  0
 21 22  1  0
 22 23  1  0
 23 24  2  0
 24 25  1  0
 25 26  1  0
 25 27  2  0
 27 28  1  0
 28 29  1  0
 29 30  1  0
 21 31  2  0
 14 32  2  0
 32 10  1  0
 31 16  1  0
 28 22  2  0
  1 33  1  0
  1 34  1  0
  1 35  1  0
  2 36  1  0
  7 37  1  0
  7 38  1  0
  7 39  1  0
  9 40  1  0
  9 41  1  0
 11 42  1  0
 12 43  1  0
 13 44  1  0
 15 45  1  0
 18 46  1  0
 23 47  1  0
 24 48  1  0
 27 49  1  0
 30 50  1  0
 30 51  1  0
 30 52  1  0
 32 53  1  0
M  END
>  <meeko>  (1) 
{"is_sidechain": false}

>  <smiles>  (1) 
CNC(=O)N=S(C)(=O)Cc1cccc(Nc2ncc(F)c(-c3ccc(F)cc3OC)n2)c1

>  <vina_score>  (1) 
-9.135

>  <job_id>  (1) 
bcb1952a816c64b4

$$$$
