
     RDKit          3D

 55 58  0  0  0  0  0  0  0  0999 V2000
   53.1210   75.5860   28.0200 C   0  0  0  0  0  0  0  0  0  0  0  0
   52.1860   76.1170   26.5660 S   0  0  0  0  0  0  0  0  0  0  0  0
   53.0910   77.5010   26.1540 N   0  0  0  0  0  0  0  0  0  0  0  0
   53.3100   77.9500   24.8930 C   0  0  0  0  0  0  0  0  0  0  0  0
   54.0390   79.0480   24.9100 N   0  0  0  0  0  0  0  0  0  0  0  0
   54.2970   79.2950   26.2500 C   0  0  0  0  0  0  0  0  0  0  0  0
   55.0870   80.4330   26.6340 C   0  0  0  0  0  0  0  0  0  0  0  0
   56.2630   80.2560   27.2710 C   0  0  0  0  0  0  0  0  0  0  0  0
   57.0600   81.4570   27.6620 C   0  0  0  0  0  0  0  0  0  0  0  0
   58.2600   81.3550   28.3240 N   0  0  0  0  0  0  0  0  0  0  0  0
   58.5530   80.3380   29.3200 C   0  0  0  0  0  0  0  0  0  0  0  0
   59.6850   80.8120   30.2510 C   0  0  1  0  0  0  0  0  0  0  0  0
   60.1080   82.2580   29.9000 C   0  0  0  0  0  0  0  0  0  0  0  0
   59.6150   83.3110   30.8990 C   0  0  0  0  0  0  0  0  0  0  0  0
   58.2630   83.0250   31.3640 N   0  0  0  0  0  0  0  0  0  0  0  0
   58.2130   81.7570   32.1150 C   0  0  0  0  0  0  0  0  0  0  0  0
   59.2880   80.7120   31.7330 C   0  0  2  0  0  0  0  0  0  0  0  0
   60.4610   80.9190   32.5340 O   0  0  0  0  0  0  0  0  0  0  0  0
   56.6780   82.6800   27.3980 N   0  0  0  0  0  0  0  0  0  0  0  0
   55.4920   82.8440   26.7450 C   0  0  0  0  0  0  0  0  0  0  0  0
   54.8470   83.9970   26.3380 C   0  0  0  0  0  0  0  0  0  0  0  0
   55.3070   85.4120   26.5200 C   0  0  0  0  0  0  0  0  0  0  0  0
   54.2740   86.4130   25.9990 C   0  0  0  0  0  0  0  0  0  0  0  0
   56.6670   85.6520   25.8610 C   0  0  0  0  0  0  0  0  0  0  0  0
   53.6720   83.5330   25.7190 C   0  0  0  0  0  0  0  0  0  0  0  0
   53.5630   82.2080   25.7210 N   0  0  0  0  0  0  0  0  0  0  0  0
   54.6870   81.7590   26.3590 N   0  0  0  0  0  0  0  0  0  0  0  0
   53.7200   78.3180   27.0360 C   0  0  0  0  0  0  0  0  0  0  0  0
   52.5855   75.8901   28.9315 H   0  0  0  0  0  0  0  0  0  0  0  0
   53.2296   74.4915   28.0065 H   0  0  0  0  0  0  0  0  0  0  0  0
   54.1167   76.0534   28.0065 H   0  0  0  0  0  0  0  0  0  0  0  0
   52.9313   77.4645   23.9815 H   0  0  0  0  0  0  0  0  0  0  0  0
   56.6288   79.2439   27.4986 H   0  0  0  0  0  0  0  0  0  0  0  0
   58.5620   82.2890   28.5960 H   0  0  0  0  0  0  0  0  0  0  0  0
   57.6497   80.1437   29.9169 H   0  0  0  0  0  0  0  0  0  0  0  0
   58.8719   79.4178   28.8087 H   0  0  0  0  0  0  0  0  0  0  0  0
   60.5430   80.1420   30.0929 H   0  0  0  0  0  0  0  0  0  0  0  0
   61.2068   82.2990   29.8681 H   0  0  0  0  0  0  0  0  0  0  0  0
   59.6472   82.4983   28.9305 H   0  0  0  0  0  0  0  0  0  0  0  0
   60.2936   83.3258   31.7646 H   0  0  0  0  0  0  0  0  0  0  0  0
   59.6024   84.2860   30.3898 H   0  0  0  0  0  0  0  0  0  0  0  0
   57.6240   82.9880   30.5730 H   0  0  0  0  0  0  0  0  0  0  0  0
   58.3328   81.9911   33.1831 H   0  0  0  0  0  0  0  0  0  0  0  0
   57.2448   81.2978   31.8668 H   0  0  0  0  0  0  0  0  0  0  0  0
   58.8591   79.7150   31.9121 H   0  0  0  0  0  0  0  0  0  0  0  0
   60.6960   81.8600   32.4680 H   0  0  0  0  0  0  0  0  0  0  0  0
   55.4201   85.5731   27.6022 H   0  0  0  0  0  0  0  0  0  0  0  0
   53.7728   86.8987   26.8492 H   0  0  0  0  0  0  0  0  0  0  0  0
   54.7782   87.1750   25.3866 H   0  0  0  0  0  0  0  0  0  0  0  0
   53.5282   85.8850   25.3866 H   0  0  0  0  0  0  0  0  0  0  0  0
   57.4327   85.7871   26.6391 H   0  0  0  0  0  0  0  0  0  0  0  0
   56.9290   84.7862   25.2351 H   0  0  0  0  0  0  0  0  0  0  0  0
   56.6169   86.5552   25.2351 H   0  0  0  0  0  0  0  0  0  0  0  0
   52.9178   84.2006   25.2769 H   0  0  0  0  0  0  0  0  0  0  0  0
   53.7609   78.2231   28.1311 H   0  0  0  0  0  0  0  0  0  0  0  0
  1  2  1  0
  2  3  1  0
  3  4  1  0
  4  5  2  0
  5  6  1  0
  6  7  1  0
  7  8  2  0
  8  9  1  0
  9 10  1  0
 10 11  1  0
 11 12  1  0
 12 13  1  0
 13 14  1  0
 14 15  1  0
 15 16  1  0
 16 17  1  0
 17 18  1  0
  9 19  2  0
 19 20  1  0
 20 21  2  0
 21 22  1  0
 22 23  1  0
 22 24  1  0
 21 25  1  0
 25 26  2  0
 26 27  1  0
  6 28  2  0
 28  3  1  0
 27  7  1  0
 17 12  1  0
 27 20  1  0
  1 29  1  0
  1 30  1  0
  1 31  1  0
  4 32  1  0
  8 33  1  0
 10 34  1  0
 11 35  1  0
 11 36  1  0
 12 37  1  1
 13 38  1  0
 13 39  1  0
 14 40  1  0
 14 41  1  0
 15 42  1  0
 16 43  1  0
 16 44  1  0
 17 45  1  6
 18 46  1  0
 22 47  1  0
 23 48  1  0
 23 49  1  0
 23 50  1  0
 24 51  1  0
 24 52  1  0
 24 53  1  0
 25 54  1  0
 28 55  1  0
M  END
>  <meeko>  (1) 
{"is_sidechain": false}

>  <smiles>  (1) 
CSn1cnc(-c2cc(NC[C@H]3CCNC[C@@H]3O)nc3c(C(C)C)cnn23)c1

>  <vina_score>  (1) 
-6.203

>  <job_id>  (1) 
bce74c2e0b4c1c85

$$$$
