
     RDKit          3D

 72 75  0  0  0  0  0  0  0  0999 V2000
   52.9980   81.6020   23.8180 C   0  0  0  0  0  0  0  0  0  0  0  0
   53.2640   80.4000   24.6490 C   0  0  0  0  0  0  0  0  0  0  0  0
   52.9070   79.1830   24.2910 N   0  0  0  0  0  0  0  0  0  0  0  0
   53.3500   78.3560   25.2770 C   0  0  0  0  0  0  0  0  0  0  0  0
   53.9870   79.0580   26.2820 C   0  0  0  0  0  0  0  0  0  0  0  0
   54.6220   78.5480   27.4920 C   0  0  0  0  0  0  0  0  0  0  0  0
   53.9420   77.7480   28.3790 C   0  0  0  0  0  0  0  0  0  0  0  0
   54.6700   77.3300   29.4600 C   0  0  0  0  0  0  0  0  0  0  0  0
   55.9590   77.6570   29.6580 N   0  0  0  0  0  0  0  0  0  0  0  0
   56.5520   78.4270   28.7350 C   0  0  0  0  0  0  0  0  0  0  0  0
   57.8850   78.8120   28.8350 N   0  0  0  0  0  0  0  0  0  0  0  0
   58.5570   79.8280   29.5180 C   0  0  0  0  0  0  0  0  0  0  0  0
   59.3080   80.8240   28.9020 C   0  0  0  0  0  0  0  0  0  0  0  0
   59.9680   81.8140   29.6530 C   0  0  0  0  0  0  0  0  0  0  0  0
   59.9100   81.8530   31.0520 C   0  0  0  0  0  0  0  0  0  0  0  0
   60.5580   82.8340   31.7820 N   0  0  0  0  0  0  0  0  0  0  0  0
   61.2370   82.5380   33.0530 C   0  0  0  0  0  0  0  0  0  0  0  0
   61.3220   83.8010   33.9300 C   0  0  0  0  0  0  0  0  0  0  0  0
   62.0760   84.9200   33.2680 N   0  0  0  0  0  0  0  0  0  0  0  0
   63.6400   85.2130   33.8680 S   0  0  0  0  0  0  0  0  0  0  0  0
   63.8420   84.3400   35.0060 O   0  0  0  0  0  0  0  0  0  0  0  0
   63.7810   86.6470   33.9980 O   0  0  0  0  0  0  0  0  0  0  0  0
   64.6870   84.6470   32.5300 C   0  0  0  0  0  0  0  0  0  0  0  0
   65.3100   83.2920   32.8440 C   0  0  0  0  0  0  0  0  0  0  0  0
   65.5710   82.4900   31.6290 N   0  0  0  0  0  0  0  0  0  0  0  0
   66.3670   83.2290   30.6450 C   0  0  0  0  0  0  0  0  0  0  0  0
   64.3020   82.0780   31.0200 C   0  0  0  0  0  0  0  0  0  0  0  0
   62.0260   84.8450   31.7660 C   0  0  0  0  0  0  0  0  0  0  0  0
   60.7260   84.1980   31.2490 C   0  0  0  0  0  0  0  0  0  0  0  0
   59.1500   80.8480   31.6620 C   0  0  0  0  0  0  0  0  0  0  0  0
   58.4920   79.8570   30.9160 C   0  0  0  0  0  0  0  0  0  0  0  0
   55.9150   78.8910   27.6480 N   0  0  0  0  0  0  0  0  0  0  0  0
   53.8910   80.3870   25.8830 N   0  0  0  0  0  0  0  0  0  0  0  0
   54.3520   81.5380   26.6640 C   0  0  0  0  0  0  0  0  0  0  0  0
   53.2510   82.5440   27.0140 C   0  0  0  0  0  0  0  0  0  0  0  0
   55.5580   82.2200   26.0200 C   0  0  0  0  0  0  0  0  0  0  0  0
   52.8070   82.4653   24.4724 H   0  0  0  0  0  0  0  0  0  0  0  0
   53.8719   81.8095   23.1831 H   0  0  0  0  0  0  0  0  0  0  0  0
   52.1181   81.4214   23.1831 H   0  0  0  0  0  0  0  0  0  0  0  0
   53.2173   77.2640   25.2741 H   0  0  0  0  0  0  0  0  0  0  0  0
   52.8896   77.4644   28.2309 H   0  0  0  0  0  0  0  0  0  0  0  0
   54.1740   76.6925   30.2067 H   0  0  0  0  0  0  0  0  0  0  0  0
   58.4530   78.1550   28.3220 H   0  0  0  0  0  0  0  0  0  0  0  0
   59.3875   80.8378   27.8050 H   0  0  0  0  0  0  0  0  0  0  0  0
   60.5492   82.5834   29.1236 H   0  0  0  0  0  0  0  0  0  0  0  0
   60.6737   81.7615   33.5913 H   0  0  0  0  0  0  0  0  0  0  0  0
   62.2570   82.1877   32.8366 H   0  0  0  0  0  0  0  0  0  0  0  0
   60.3008   84.1464   34.1487 H   0  0  0  0  0  0  0  0  0  0  0  0
   61.8667   83.5315   34.8469 H   0  0  0  0  0  0  0  0  0  0  0  0
   64.0822   84.5592   31.6154 H   0  0  0  0  0  0  0  0  0  0  0  0
   65.4985   85.3771   32.3939 H   0  0  0  0  0  0  0  0  0  0  0  0
   66.2625   83.4556   33.3694 H   0  0  0  0  0  0  0  0  0  0  0  0
   64.5947   82.7326   33.4648 H   0  0  0  0  0  0  0  0  0  0  0  0
   67.0764   83.8876   31.1674 H   0  0  0  0  0  0  0  0  0  0  0  0
   66.9221   82.5188   30.0145 H   0  0  0  0  0  0  0  0  0  0  0  0
   65.6999   83.8352   30.0145 H   0  0  0  0  0  0  0  0  0  0  0  0
   63.5752   81.8420   31.8112 H   0  0  0  0  0  0  0  0  0  0  0  0
   63.9122   82.8957   30.3960 H   0  0  0  0  0  0  0  0  0  0  0  0
   64.4669   81.1872   30.3960 H   0  0  0  0  0  0  0  0  0  0  0  0
   62.0982   85.8646   31.3595 H   0  0  0  0  0  0  0  0  0  0  0  0
   62.8660   84.2166   31.4351 H   0  0  0  0  0  0  0  0  0  0  0  0
   59.8700   84.8134   31.5630 H   0  0  0  0  0  0  0  0  0  0  0  0
   60.7805   84.1379   30.1520 H   0  0  0  0  0  0  0  0  0  0  0  0
   59.0658   80.8342   32.7587 H   0  0  0  0  0  0  0  0  0  0  0  0
   57.9117   79.0851   31.4427 H   0  0  0  0  0  0  0  0  0  0  0  0
   54.6757   81.1166   27.6272 H   0  0  0  0  0  0  0  0  0  0  0  0
   53.1624   82.6250   28.1074 H   0  0  0  0  0  0  0  0  0  0  0  0
   53.5058   83.5278   26.5929 H   0  0  0  0  0  0  0  0  0  0  0  0
   52.2942   82.2017   26.5929 H   0  0  0  0  0  0  0  0  0  0  0  0
   56.2279   82.5989   26.8059 H   0  0  0  0  0  0  0  0  0  0  0  0
   56.0993   81.4943   25.3952 H   0  0  0  0  0  0  0  0  0  0  0  0
   55.2151   83.0579   25.3952 H   0  0  0  0  0  0  0  0  0  0  0  0
  1  2  1  0
  2  3  2  0
  3  4  1  0
  4  5  2  0
  5  6  1  0
  6  7  1  0
  7  8  2  0
  8  9  1  0
  9 10  2  0
 10 11  1  0
 11 12  1  0
 12 13  1  0
 13 14  2  0
 14 15  1  0
 15 16  1  0
 16 17  1  0
 17 18  1  0
 18 19  1  0
 19 20  1  0
 20 21  2  0
 20 22  2  0
 20 23  1  0
 23 24  1  0
 24 25  1  0
 25 26  1  0
 25 27  1  0
 19 28  1  0
 28 29  1  0
 15 30  2  0
 30 31  1  0
 10 32  1  0
  5 33  1  0
 33 34  1  0
 34 35  1  0
 34 36  1  0
 33  2  1  0
 32  6  2  0
 31 12  2  0
 29 16  1  0
  1 37  1  0
  1 38  1  0
  1 39  1  0
  4 40  1  0
  7 41  1  0
  8 42  1  0
 11 43  1  0
 13 44  1  0
 14 45  1  0
 17 46  1  0
 17 47  1  0
 18 48  1  0
 18 49  1  0
 23 50  1  0
 23 51  1  0
 24 52  1  0
 24 53  1  0
 26 54  1  0
 26 55  1  0
 26 56  1  0
 27 57  1  0
 27 58  1  0
 27 59  1  0
 28 60  1  0
 28 61  1  0
 29 62  1  0
 29 63  1  0
 30 64  1  0
 31 65  1  0
 34 66  1  0
 35 67  1  0
 35 68  1  0
 35 69  1  0
 36 70  1  0
 36 71  1  0
 36 72  1  0
M  END
>  <meeko>  (1) 
{"is_sidechain": false}

>  <smiles>  (1) 
Cc1ncc(-c2ccnc(Nc3ccc(N4CCN(S(=O)(=O)CCN(C)C)CC4)cc3)n2)n1C(C)C

>  <vina_score>  (1) 
-8.481

>  <job_id>  (1) 
bd08eb50afbc6ff6

$$$$
