
     RDKit          3D

 54 56  0  0  0  0  0  0  0  0999 V2000
   51.7820   76.5130   28.0160 C   0  0  0  0  0  0  0  0  0  0  0  0
   53.2640   76.6290   27.6640 C   0  0  0  0  0  0  0  0  0  0  0  0
   54.1270   75.9990   28.7530 C   0  0  0  0  0  0  0  0  0  0  0  0
   53.6480   78.0230   27.4760 N   0  0  0  0  0  0  0  0  0  0  0  0
   53.5490   78.6230   26.2460 C   0  0  0  0  0  0  0  0  0  0  0  0
   53.1830   78.0050   25.2470 O   0  0  0  0  0  0  0  0  0  0  0  0
   53.9050   79.9650   26.2140 N   0  0  0  0  0  0  0  0  0  0  0  0
   53.0030   81.0840   26.5090 C   0  0  0  0  0  0  0  0  0  0  0  0
   53.5040   82.4120   25.9380 C   0  0  0  0  0  0  0  0  0  0  0  0
   54.4280   83.2200   26.8720 C   0  0  0  0  0  0  0  0  0  0  0  0
   55.9360   83.0780   26.6560 C   0  0  0  0  0  0  0  0  0  0  0  0
   56.5200   81.8500   27.3010 C   0  0  0  0  0  0  0  0  0  0  0  0
   57.4100   82.0910   28.3000 N   0  0  0  0  0  0  0  0  0  0  0  0
   58.0150   81.0440   28.9170 C   0  0  0  0  0  0  0  0  0  0  0  0
   58.9610   81.3990   29.9990 C   0  0  0  0  0  0  0  0  0  0  0  0
   58.7190   81.0710   31.3480 C   0  0  0  0  0  0  0  0  0  0  0  0
   59.6250   81.4140   32.3570 C   0  0  0  0  0  0  0  0  0  0  0  0
   60.7970   82.0960   32.0290 C   0  0  0  0  0  0  0  0  0  0  0  0
   61.9400   82.5340   33.3100 S   0  0  0  0  0  0  0  0  0  0  0  0
   60.9250   82.5980   34.6540 N   0  0  0  0  0  0  0  0  0  0  0  0
   62.4270   83.8690   33.0560 O   0  0  0  0  0  0  0  0  0  0  0  0
   62.8230   81.4140   33.5440 O   0  0  0  0  0  0  0  0  0  0  0  0
   61.0590   82.4570   30.7090 C   0  0  0  0  0  0  0  0  0  0  0  0
   60.1460   82.1070   29.7090 C   0  0  0  0  0  0  0  0  0  0  0  0
   57.7590   79.7340   28.5270 C   0  0  0  0  0  0  0  0  0  0  0  0
   56.8530   79.4950   27.4980 C   0  0  0  0  0  0  0  0  0  0  0  0
   56.2010   80.5620   26.8690 C   0  0  0  0  0  0  0  0  0  0  0  0
   55.2460   80.2850   25.7350 C   0  0  0  0  0  0  0  0  0  0  0  0
   51.6645   76.5038   29.1097 H   0  0  0  0  0  0  0  0  0  0  0  0
   51.2371   77.3712   27.5959 H   0  0  0  0  0  0  0  0  0  0  0  0
   51.3773   75.5804   27.5959 H   0  0  0  0  0  0  0  0  0  0  0  0
   53.4274   76.0882   26.7202 H   0  0  0  0  0  0  0  0  0  0  0  0
   53.7365   76.2841   29.7411 H   0  0  0  0  0  0  0  0  0  0  0  0
   54.1038   74.9039   28.6516 H   0  0  0  0  0  0  0  0  0  0  0  0
   55.1629   76.3548   28.6516 H   0  0  0  0  0  0  0  0  0  0  0  0
   53.4600   78.6290   28.2580 H   0  0  0  0  0  0  0  0  0  0  0  0
   52.0162   80.8644   26.0755 H   0  0  0  0  0  0  0  0  0  0  0  0
   52.9520   81.1905   27.6026 H   0  0  0  0  0  0  0  0  0  0  0  0
   54.0587   82.1972   25.0127 H   0  0  0  0  0  0  0  0  0  0  0  0
   52.6103   83.0334   25.7795 H   0  0  0  0  0  0  0  0  0  0  0  0
   54.1746   84.2834   26.7495 H   0  0  0  0  0  0  0  0  0  0  0  0
   54.2451   82.8103   27.8763 H   0  0  0  0  0  0  0  0  0  0  0  0
   56.1301   83.0293   25.5744 H   0  0  0  0  0  0  0  0  0  0  0  0
   56.4145   83.9499   27.1259 H   0  0  0  0  0  0  0  0  0  0  0  0
   57.7969   80.5332   31.6135 H   0  0  0  0  0  0  0  0  0  0  0  0
   59.4146   81.1475   33.4033 H   0  0  0  0  0  0  0  0  0  0  0  0
   60.7280   83.5770   34.8670 H   0  0  0  0  0  0  0  0  0  0  0  0
   61.2960   82.1000   35.4610 H   0  0  0  0  0  0  0  0  0  0  0  0
   61.9746   83.0116   30.4560 H   0  0  0  0  0  0  0  0  0  0  0  0
   60.3579   82.3917   28.6678 H   0  0  0  0  0  0  0  0  0  0  0  0
   58.2670   78.8958   29.0264 H   0  0  0  0  0  0  0  0  0  0  0  0
   56.6483   78.4628   27.1775 H   0  0  0  0  0  0  0  0  0  0  0  0
   55.1901   81.1760   25.0923 H   0  0  0  0  0  0  0  0  0  0  0  0
   55.6239   79.4150   25.1779 H   0  0  0  0  0  0  0  0  0  0  0  0
  1  2  1  0
  2  3  1  0
  2  4  1  0
  4  5  1  0
  5  6  2  0
  5  7  1  0
  7  8  1  0
  8  9  1  0
  9 10  1  0
 10 11  1  0
 11 12  1  0
 12 13  1  0
 13 14  2  0
 14 15  1  0
 15 16  1  0
 16 17  2  0
 17 18  1  0
 18 19  1  0
 19 20  1  0
 19 21  2  0
 19 22  2  0
 18 23  2  0
 23 24  1  0
 14 25  1  0
 25 26  2  0
 26 27  1  0
 27 28  1  0
 28  7  1  0
 27 12  2  0
 24 15  2  0
  1 29  1  0
  1 30  1  0
  1 31  1  0
  2 32  1  0
  3 33  1  0
  3 34  1  0
  3 35  1  0
  4 36  1  0
  8 37  1  0
  8 38  1  0
  9 39  1  0
  9 40  1  0
 10 41  1  0
 10 42  1  0
 11 43  1  0
 11 44  1  0
 16 45  1  0
 17 46  1  0
 20 47  1  0
 20 48  1  0
 23 49  1  0
 24 50  1  0
 25 51  1  0
 26 52  1  0
 28 53  1  0
 28 54  1  0
M  END
>  <meeko>  (1) 
{"is_sidechain": false}

>  <smiles>  (1) 
CC(C)NC(=O)N1CCCCc2nc(-c3ccc(S(N)(=O)=O)cc3)ccc2C1

>  <vina_score>  (1) 
-5.746

>  <job_id>  (1) 
bd305cb65385f359

$$$$
