
     RDKit          3D

 42 45  0  0  0  0  0  0  0  0999 V2000
   56.3100   84.3410   26.0460 N   0  0  0  0  0  0  0  0  0  0  0  0
   55.7330   83.3380   26.1450 C   0  0  0  0  0  0  0  0  0  0  0  0
   54.9920   82.1290   26.2420 C   0  0  0  0  0  0  0  0  0  0  0  0
   53.7050   81.8740   25.7500 C   0  0  0  0  0  0  0  0  0  0  0  0
   53.2890   80.6340   26.0140 N   0  0  0  0  0  0  0  0  0  0  0  0
   54.3370   80.0620   26.6820 N   0  0  0  0  0  0  0  0  0  0  0  0
   54.4050   78.7400   27.1880 C   0  0  0  0  0  0  0  0  0  0  0  0
   53.2930   77.9310   26.9580 N   0  0  0  0  0  0  0  0  0  0  0  0
   53.1560   76.6400   27.6250 C   0  0  0  0  0  0  0  0  0  0  0  0
   52.5620   75.4690   26.8940 C   0  0  0  0  0  0  0  0  0  0  0  0
   51.8090   76.1070   28.0240 C   0  0  0  0  0  0  0  0  0  0  0  0
   55.5240   78.3730   27.8360 C   0  0  0  0  0  0  0  0  0  0  0  0
   56.6090   79.3960   27.9710 C   0  0  0  0  0  0  0  0  0  0  0  0
   57.8720   78.9610   28.7390 C   0  0  1  0  0  0  0  0  0  0  0  0
   58.4980   77.8320   28.0200 N   0  0  0  0  0  0  0  0  0  0  0  0
   58.8220   80.1700   28.8520 C   0  0  0  0  0  0  0  0  0  0  0  0
   58.6420   80.9420   30.1390 C   0  0  0  0  0  0  0  0  0  0  0  0
   58.3610   80.2740   31.3390 C   0  0  0  0  0  0  0  0  0  0  0  0
   58.1850   80.9860   32.5260 C   0  0  0  0  0  0  0  0  0  0  0  0
   58.2870   82.3770   32.5290 C   0  0  0  0  0  0  0  0  0  0  0  0
   58.5650   83.0480   31.3410 C   0  0  0  0  0  0  0  0  0  0  0  0
   58.6870   84.7650   31.3390 Cl  0  0  0  0  0  0  0  0  0  0  0  0
   58.7420   82.3420   30.1500 C   0  0  0  0  0  0  0  0  0  0  0  0
   56.5420   80.6160   27.5080 N   0  0  0  0  0  0  0  0  0  0  0  0
   55.3950   80.9610   26.8500 C   0  0  0  0  0  0  0  0  0  0  0  0
   53.1028   82.6159   25.2051 H   0  0  0  0  0  0  0  0  0  0  0  0
   52.4480   78.4940   26.8070 H   0  0  0  0  0  0  0  0  0  0  0  0
   54.0980   76.8361   28.1581 H   0  0  0  0  0  0  0  0  0  0  0  0
   52.2072   75.5889   25.8597 H   0  0  0  0  0  0  0  0  0  0  0  0
   52.8959   74.4471   26.6611 H   0  0  0  0  0  0  0  0  0  0  0  0
   50.9022   76.6945   27.8180 H   0  0  0  0  0  0  0  0  0  0  0  0
   51.3624   75.7463   28.9623 H   0  0  0  0  0  0  0  0  0  0  0  0
   55.6382   77.3607   28.2509 H   0  0  0  0  0  0  0  0  0  0  0  0
   57.6263   78.6234   29.7567 H   0  0  0  0  0  0  0  0  0  0  0  0
   58.0390   76.9740   28.3420 H   0  0  0  0  0  0  0  0  0  0  0  0
   59.4620   77.7320   28.3370 H   0  0  0  0  0  0  0  0  0  0  0  0
   59.8592   79.8070   28.8027 H   0  0  0  0  0  0  0  0  0  0  0  0
   58.5870   80.8528   28.0222 H   0  0  0  0  0  0  0  0  0  0  0  0
   58.2784   79.1771   31.3449 H   0  0  0  0  0  0  0  0  0  0  0  0
   57.9655   80.4494   33.4608 H   0  0  0  0  0  0  0  0  0  0  0  0
   58.1487   82.9402   33.4637 H   0  0  0  0  0  0  0  0  0  0  0  0
   58.9603   82.8840   29.2180 H   0  0  0  0  0  0  0  0  0  0  0  0
  1  2  3  0
  2  3  1  0
  3  4  1  0
  4  5  2  0
  5  6  1  0
  6  7  1  0
  7  8  1  0
  8  9  1  0
  9 10  1  0
 10 11  1  0
  7 12  2  0
 12 13  1  0
 13 14  1  0
 14 15  1  0
 14 16  1  0
 16 17  1  0
 17 18  2  0
 18 19  1  0
 19 20  2  0
 20 21  1  0
 21 22  1  0
 21 23  2  0
 13 24  2  0
 24 25  1  0
 25  3  2  0
 25  6  1  0
 11  9  1  0
 23 17  1  0
  4 26  1  0
  8 27  1  0
  9 28  1  0
 10 29  1  0
 10 30  1  0
 11 31  1  0
 11 32  1  0
 12 33  1  0
 14 34  1  1
 15 35  1  0
 15 36  1  0
 16 37  1  0
 16 38  1  0
 18 39  1  0
 19 40  1  0
 20 41  1  0
 23 42  1  0
M  END
>  <meeko>  (1) 
{"is_sidechain": false}

>  <smiles>  (1) 
N#Cc1cnn2c(NC3CC3)cc([C@@H](N)Cc3cccc(Cl)c3)nc12

>  <vina_score>  (1) 
-8.485

>  <job_id>  (1) 
bd74b98966a613e4

$$$$
