
     RDKit          3D

 50 53  0  0  0  0  0  0  0  0999 V2000
   64.9350   84.7320   28.7750 N   0  0  0  0  0  0  0  0  0  0  0  0
   65.1490   85.3850   30.3110 S   0  0  0  0  0  0  0  0  0  0  0  0
   64.2460   86.5020   30.4540 O   0  0  0  0  0  0  0  0  0  0  0  0
   66.5780   85.5120   30.4870 O   0  0  0  0  0  0  0  0  0  0  0  0
   64.5730   84.0610   31.3420 C   0  0  0  0  0  0  0  0  0  0  0  0
   64.5000   84.2420   32.7250 C   0  0  0  0  0  0  0  0  0  0  0  0
   64.0260   83.1990   33.5250 C   0  0  0  0  0  0  0  0  0  0  0  0
   63.6040   81.9920   32.9520 C   0  0  0  0  0  0  0  0  0  0  0  0
   63.1510   80.9380   33.7700 N   0  0  0  0  0  0  0  0  0  0  0  0
   62.0200   81.0170   34.3150 N   0  0  0  0  0  0  0  0  0  0  0  0
   61.1140   82.0340   33.9760 C   0  0  0  0  0  0  0  0  0  0  0  0
   60.7830   83.1220   34.7560 C   0  0  0  0  0  0  0  0  0  0  0  0
   61.2230   83.5060   35.9500 O   0  0  0  0  0  0  0  0  0  0  0  0
   59.8510   83.8400   34.0450 N   0  0  0  0  0  0  0  0  0  0  0  0
   59.5520   83.2080   32.8550 C   0  0  0  0  0  0  0  0  0  0  0  0
   58.6660   83.5760   31.8380 C   0  0  0  0  0  0  0  0  0  0  0  0
   58.5590   82.7220   30.7340 C   0  0  0  0  0  0  0  0  0  0  0  0
   59.3010   81.5380   30.6560 C   0  0  0  0  0  0  0  0  0  0  0  0
   59.1280   80.6740   29.4560 C   0  0  0  0  0  0  0  0  0  0  0  0
   59.6610   80.9820   28.3960 O   0  0  0  0  0  0  0  0  0  0  0  0
   58.3230   79.5660   29.6130 N   0  0  0  0  0  0  0  0  0  0  0  0
   57.9680   78.7300   28.4880 C   0  0  0  0  0  0  0  0  0  0  0  0
   56.4870   78.4700   28.4580 C   0  0  0  0  0  0  0  0  0  0  0  0
   55.6360   79.2250   27.6470 C   0  0  0  0  0  0  0  0  0  0  0  0
   54.2820   78.9250   27.6420 C   0  0  0  0  0  0  0  0  0  0  0  0
   53.7300   77.9340   28.3730 N   0  0  0  0  0  0  0  0  0  0  0  0
   54.5700   77.2100   29.1440 C   0  0  0  0  0  0  0  0  0  0  0  0
   55.9350   77.4340   29.2180 C   0  0  0  0  0  0  0  0  0  0  0  0
   60.1990   81.1970   31.6800 C   0  0  0  0  0  0  0  0  0  0  0  0
   60.3250   82.0480   32.7980 C   0  0  0  0  0  0  0  0  0  0  0  0
   63.7020   81.8230   31.5650 C   0  0  0  0  0  0  0  0  0  0  0  0
   64.1710   82.8590   30.7540 C   0  0  0  0  0  0  0  0  0  0  0  0
   64.8700   85.4350   28.0400 H   0  0  0  0  0  0  0  0  0  0  0  0
   64.1220   84.1150   28.7860 H   0  0  0  0  0  0  0  0  0  0  0  0
   64.8119   85.1942   33.1790 H   0  0  0  0  0  0  0  0  0  0  0  0
   63.9837   83.3269   34.6167 H   0  0  0  0  0  0  0  0  0  0  0  0
   60.7390   84.2930   36.2490 H   0  0  0  0  0  0  0  0  0  0  0  0
   59.4280   84.7070   34.3410 H   0  0  0  0  0  0  0  0  0  0  0  0
   58.0753   84.5017   31.9029 H   0  0  0  0  0  0  0  0  0  0  0  0
   57.8782   82.9868   29.9115 H   0  0  0  0  0  0  0  0  0  0  0  0
   57.7290   79.5110   30.4290 H   0  0  0  0  0  0  0  0  0  0  0  0
   58.2638   79.2350   27.5566 H   0  0  0  0  0  0  0  0  0  0  0  0
   58.4916   77.7676   28.5866 H   0  0  0  0  0  0  0  0  0  0  0  0
   56.0320   80.0411   27.0248 H   0  0  0  0  0  0  0  0  0  0  0  0
   53.6196   79.5299   27.0053 H   0  0  0  0  0  0  0  0  0  0  0  0
   54.1454   76.3949   29.7484 H   0  0  0  0  0  0  0  0  0  0  0  0
   56.5719   76.8095   29.8617 H   0  0  0  0  0  0  0  0  0  0  0  0
   60.7975   80.2767   31.6113 H   0  0  0  0  0  0  0  0  0  0  0  0
   63.4070   80.8658   31.1103 H   0  0  0  0  0  0  0  0  0  0  0  0
   64.2234   82.7298   29.6629 H   0  0  0  0  0  0  0  0  0  0  0  0
  1  2  1  0
  2  3  2  0
  2  4  2  0
  2  5  1  0
  5  6  1  0
  6  7  2  0
  7  8  1  0
  8  9  1  0
  9 10  2  3
 10 11  1  0
 11 12  2  0
 12 13  1  0
 12 14  1  0
 14 15  1  0
 15 16  2  0
 16 17  1  0
 17 18  2  0
 18 19  1  0
 19 20  2  0
 19 21  1  0
 21 22  1  0
 22 23  1  0
 23 24  2  0
 24 25  1  0
 25 26  2  0
 26 27  1  0
 27 28  2  0
 18 29  1  0
 29 30  2  0
  8 31  2  0
 31 32  1  0
 32  5  2  0
 30 11  1  0
 30 15  1  0
 28 23  1  0
  1 33  1  0
  1 34  1  0
  6 35  1  0
  7 36  1  0
 13 37  1  0
 14 38  1  0
 16 39  1  0
 17 40  1  0
 21 41  1  0
 22 42  1  0
 22 43  1  0
 24 44  1  0
 25 45  1  0
 27 46  1  0
 28 47  1  0
 29 48  1  0
 31 49  1  0
 32 50  1  0
M  END
>  <meeko>  (1) 
{"is_sidechain": false}

>  <smiles>  (1) 
NS(=O)(=O)c1ccc(N=Nc2c(O)[nH]c3ccc(C(=O)NCc4ccncc4)cc23)cc1

>  <vina_score>  (1) 
-7.936

>  <job_id>  (1) 
bdd7db0154368862

$$$$
