
     RDKit          3D

 37 39  0  0  0  0  0  0  0  0999 V2000
   59.3100   82.2430   34.0710 N   0  0  0  0  0  0  0  0  0  0  0  0
   60.1130   82.8380   32.7130 S   0  0  0  0  0  0  0  0  0  0  0  0
   61.5290   82.6390   32.9120 O   0  0  0  0  0  0  0  0  0  0  0  0
   59.5360   84.1390   32.4640 O   0  0  0  0  0  0  0  0  0  0  0  0
   59.5550   81.7190   31.4570 C   0  0  0  0  0  0  0  0  0  0  0  0
   60.0400   81.8570   30.1550 C   0  0  0  0  0  0  0  0  0  0  0  0
   59.6010   80.9820   29.1610 C   0  0  0  0  0  0  0  0  0  0  0  0
   58.6730   79.9720   29.4600 C   0  0  0  0  0  0  0  0  0  0  0  0
   58.1850   79.0340   28.3780 C   0  0  0  0  0  0  0  0  0  0  0  0
   56.8230   79.3910   27.8310 C   0  0  0  0  0  0  0  0  0  0  0  0
   56.6290   80.5740   27.1110 C   0  0  0  0  0  0  0  0  0  0  0  0
   55.3660   80.8950   26.6020 C   0  0  0  0  0  0  0  0  0  0  0  0
   54.2470   80.0620   26.7950 C   0  0  0  0  0  0  0  0  0  0  0  0
   52.9000   80.4460   26.2130 C   0  0  0  0  0  0  0  0  0  0  0  0
   52.6570   80.4130   24.7200 C   0  0  0  0  0  0  0  0  0  0  0  0
   52.7600   81.7290   25.4240 C   0  0  0  0  0  0  0  0  0  0  0  0
   54.4690   78.8660   27.5050 C   0  0  0  0  0  0  0  0  0  0  0  0
   53.0680   77.6070   27.7860 Br  0  0  0  0  0  0  0  0  0  0  0  0
   55.7320   78.5370   28.0200 C   0  0  0  0  0  0  0  0  0  0  0  0
   58.1850   79.8570   30.7720 C   0  0  0  0  0  0  0  0  0  0  0  0
   58.6210   80.7300   31.7710 C   0  0  0  0  0  0  0  0  0  0  0  0
   59.9940   82.0790   34.8100 H   0  0  0  0  0  0  0  0  0  0  0  0
   58.5500   82.8470   34.3820 H   0  0  0  0  0  0  0  0  0  0  0  0
   60.7633   82.6502   29.9146 H   0  0  0  0  0  0  0  0  0  0  0  0
   59.9849   81.0843   28.1353 H   0  0  0  0  0  0  0  0  0  0  0  0
   58.9079   79.0544   27.5492 H   0  0  0  0  0  0  0  0  0  0  0  0
   58.0960   78.0370   28.8342 H   0  0  0  0  0  0  0  0  0  0  0  0
   57.4751   81.2567   26.9437 H   0  0  0  0  0  0  0  0  0  0  0  0
   55.2430   81.8281   26.0327 H   0  0  0  0  0  0  0  0  0  0  0  0
   52.4057   79.9998   27.0885 H   0  0  0  0  0  0  0  0  0  0  0  0
   53.4591   80.0898   24.0402 H   0  0  0  0  0  0  0  0  0  0  0  0
   51.9100   79.9395   24.0659 H   0  0  0  0  0  0  0  0  0  0  0  0
   53.6377   82.3716   25.2608 H   0  0  0  0  0  0  0  0  0  0  0  0
   52.1197   82.6202   25.4999 H   0  0  0  0  0  0  0  0  0  0  0  0
   55.8652   77.5983   28.5778 H   0  0  0  0  0  0  0  0  0  0  0  0
   57.4531   79.0725   31.0147 H   0  0  0  0  0  0  0  0  0  0  0  0
   58.2321   80.6392   32.7959 H   0  0  0  0  0  0  0  0  0  0  0  0
  1  2  1  0
  2  3  2  0
  2  4  2  0
  2  5  1  0
  5  6  1  0
  6  7  2  0
  7  8  1  0
  8  9  1  0
  9 10  1  0
 10 11  1  0
 11 12  2  0
 12 13  1  0
 13 14  1  0
 14 15  1  0
 15 16  1  0
 13 17  2  0
 17 18  1  0
 17 19  1  0
  8 20  2  0
 20 21  1  0
 21  5  2  0
 19 10  2  0
 16 14  1  0
  1 22  1  0
  1 23  1  0
  6 24  1  0
  7 25  1  0
  9 26  1  0
  9 27  1  0
 11 28  1  0
 12 29  1  0
 14 30  1  0
 15 31  1  0
 15 32  1  0
 16 33  1  0
 16 34  1  0
 19 35  1  0
 20 36  1  0
 21 37  1  0
M  END
>  <meeko>  (1) 
{"is_sidechain": false}

>  <smiles>  (1) 
NS(=O)(=O)c1ccc(Cc2ccc(C3CC3)c(Br)c2)cc1

>  <vina_score>  (1) 
-7.924

>  <job_id>  (1) 
bdeab01a8b07ba59

$$$$
