
     RDKit          3D

 42 44  0  0  0  0  0  0  0  0999 V2000
   61.6140   83.1740   32.0520 O   0  0  0  0  0  0  0  0  0  0  0  0
   61.0440   82.1070   32.2690 C   0  0  0  0  0  0  0  0  0  0  0  0
   61.4120   81.3830   33.4880 C   0  0  0  0  0  0  0  0  0  0  0  0
   62.6940   80.8670   33.6450 C   0  0  0  0  0  0  0  0  0  0  0  0
   63.6060   80.9820   32.6690 F   0  0  0  0  0  0  0  0  0  0  0  0
   63.0540   80.2120   34.8220 C   0  0  0  0  0  0  0  0  0  0  0  0
   62.1230   80.0790   35.8550 C   0  0  0  0  0  0  0  0  0  0  0  0
   60.8380   80.6030   35.7030 C   0  0  0  0  0  0  0  0  0  0  0  0
   60.4900   81.2570   34.5220 C   0  0  0  0  0  0  0  0  0  0  0  0
   59.2430   81.7320   34.3950 F   0  0  0  0  0  0  0  0  0  0  0  0
   60.0910   81.5540   31.4250 N   0  0  0  0  0  0  0  0  0  0  0  0
   59.7740   82.2420   30.1730 C   0  0  0  0  0  0  0  0  0  0  0  0
   59.3090   81.2520   29.0900 C   0  0  0  0  0  0  0  0  0  0  0  0
   58.1070   80.4680   29.4660 N   0  0  0  0  0  0  0  0  0  0  0  0
   58.0670   79.1740   28.7700 C   0  0  0  0  0  0  0  0  0  0  0  0
   56.6630   78.6380   28.5750 C   0  0  0  0  0  0  0  0  0  0  0  0
   55.7980   79.2370   27.6460 C   0  0  0  0  0  0  0  0  0  0  0  0
   54.5020   78.7510   27.4690 C   0  0  0  0  0  0  0  0  0  0  0  0
   54.0660   77.6670   28.2190 C   0  0  0  0  0  0  0  0  0  0  0  0
   52.7920   77.2230   28.0140 O   0  0  0  0  0  0  0  0  0  0  0  0
   54.9050   77.0570   29.1460 C   0  0  0  0  0  0  0  0  0  0  0  0
   56.2020   77.5440   29.3250 C   0  0  0  0  0  0  0  0  0  0  0  0
   57.9850   80.3080   30.9290 C   0  0  0  0  0  0  0  0  0  0  0  0
   59.3140   80.3420   31.7070 C   0  0  0  0  0  0  0  0  0  0  0  0
   64.0679   79.8012   34.9368 H   0  0  0  0  0  0  0  0  0  0  0  0
   62.4016   79.5628   36.7856 H   0  0  0  0  0  0  0  0  0  0  0  0
   60.1015   80.5000   36.5135 H   0  0  0  0  0  0  0  0  0  0  0  0
   58.9722   82.9717   30.3588 H   0  0  0  0  0  0  0  0  0  0  0  0
   60.6842   82.7449   29.8144 H   0  0  0  0  0  0  0  0  0  0  0  0
   59.0794   81.8208   28.1769 H   0  0  0  0  0  0  0  0  0  0  0  0
   60.1270   80.5310   28.9451 H   0  0  0  0  0  0  0  0  0  0  0  0
   58.5342   79.2953   27.7816 H   0  0  0  0  0  0  0  0  0  0  0  0
   58.6061   78.4504   29.3991 H   0  0  0  0  0  0  0  0  0  0  0  0
   56.1444   80.0962   27.0529 H   0  0  0  0  0  0  0  0  0  0  0  0
   53.8291   79.2244   26.7389 H   0  0  0  0  0  0  0  0  0  0  0  0
   52.1860   77.9770   28.1010 H   0  0  0  0  0  0  0  0  0  0  0  0
   54.5498   76.1976   29.7336 H   0  0  0  0  0  0  0  0  0  0  0  0
   56.8675   77.0667   30.0593 H   0  0  0  0  0  0  0  0  0  0  0  0
   57.3482   81.1209   31.3080 H   0  0  0  0  0  0  0  0  0  0  0  0
   57.5624   79.3055   31.0916 H   0  0  0  0  0  0  0  0  0  0  0  0
   59.0948   80.3045   32.7843 H   0  0  0  0  0  0  0  0  0  0  0  0
   59.9130   79.4757   31.3897 H   0  0  0  0  0  0  0  0  0  0  0  0
  1  2  2  0
  2  3  1  0
  3  4  2  0
  4  5  1  0
  4  6  1  0
  6  7  2  0
  7  8  1  0
  8  9  2  0
  9 10  1  0
  2 11  1  0
 11 12  1  0
 12 13  1  0
 13 14  1  0
 14 15  1  0
 15 16  1  0
 16 17  1  0
 17 18  2  0
 18 19  1  0
 19 20  1  0
 19 21  2  0
 21 22  1  0
 14 23  1  0
 23 24  1  0
  9  3  1  0
 24 11  1  0
 22 16  2  0
  6 25  1  0
  7 26  1  0
  8 27  1  0
 12 28  1  0
 12 29  1  0
 13 30  1  0
 13 31  1  0
 15 32  1  0
 15 33  1  0
 17 34  1  0
 18 35  1  0
 20 36  1  0
 21 37  1  0
 22 38  1  0
 23 39  1  0
 23 40  1  0
 24 41  1  0
 24 42  1  0
M  END
>  <meeko>  (1) 
{"is_sidechain": false}

>  <smiles>  (1) 
O=C(c1c(F)cccc1F)N1CCN(Cc2ccc(O)cc2)CC1

>  <vina_score>  (1) 
-7.776

>  <job_id>  (1) 
be10495852f8db9f

$$$$
