
     RDKit          3D

 57 58  0  0  0  0  0  0  0  0999 V2000
   60.9360   85.9770   31.4520 C   0  0  0  0  0  0  0  0  0  0  0  0
   59.7370   85.0850   31.8070 C   0  0  2  0  0  0  0  0  0  0  0  0
   58.6620   85.8960   32.5730 C   0  0  1  0  0  0  0  0  0  0  0  0
   58.3180   87.2490   31.9540 C   0  0  0  0  0  0  0  0  0  0  0  0
   57.4350   85.1430   32.8530 N   0  0  0  0  0  0  0  0  0  0  0  0
   60.3250   83.5790   32.6100 S   0  0  0  0  0  0  0  0  0  0  0  0
   59.6960   83.4690   34.0200 N   0  0  0  0  0  0  0  0  0  0  0  0
   61.7580   83.4850   32.4000 O   0  0  0  0  0  0  0  0  0  0  0  0
   59.6470   82.2500   31.6220 C   0  0  0  0  0  0  0  0  0  0  0  0
   58.8410   81.2630   32.1870 C   0  0  0  0  0  0  0  0  0  0  0  0
   58.3460   80.2330   31.3800 C   0  0  0  0  0  0  0  0  0  0  0  0
   58.6550   80.1550   30.0110 C   0  0  0  0  0  0  0  0  0  0  0  0
   58.1090   79.1060   29.2640 N   0  0  0  0  0  0  0  0  0  0  0  0
   56.8770   78.8910   28.6540 C   0  0  0  0  0  0  0  0  0  0  0  0
   56.0800   77.8700   28.9930 N   0  0  0  0  0  0  0  0  0  0  0  0
   54.9110   77.7400   28.3360 C   0  0  0  0  0  0  0  0  0  0  0  0
   54.5000   78.5940   27.3440 C   0  0  0  0  0  0  0  0  0  0  0  0
   53.2140   78.4290   26.6310 C   0  0  0  0  0  0  0  0  0  0  0  0
   53.3530   78.3910   25.2770 F   0  0  0  0  0  0  0  0  0  0  0  0
   52.3240   79.4230   26.8950 F   0  0  0  0  0  0  0  0  0  0  0  0
   52.5700   77.2710   26.9590 F   0  0  0  0  0  0  0  0  0  0  0  0
   55.3740   79.6140   27.0720 C   0  0  0  0  0  0  0  0  0  0  0  0
   55.0250   80.4830   26.0600 O   0  0  0  0  0  0  0  0  0  0  0  0
   54.5760   81.7920   26.4560 C   0  0  2  0  0  0  0  0  0  0  0  0
   53.3600   82.1040   25.5820 C   0  0  0  0  0  0  0  0  0  0  0  0
   55.7050   82.8190   26.2170 C   0  0  1  0  0  0  0  0  0  0  0  0
   55.2080   84.2570   26.1450 C   0  0  0  0  0  0  0  0  0  0  0  0
   56.6850   82.7450   27.2580 O   0  0  0  0  0  0  0  0  0  0  0  0
   56.5550   79.7730   27.6960 N   0  0  0  0  0  0  0  0  0  0  0  0
   59.4820   81.1480   29.4750 C   0  0  0  0  0  0  0  0  0  0  0  0
   59.9850   82.1840   30.2700 C   0  0  0  0  0  0  0  0  0  0  0  0
   61.4145   86.3330   32.3763 H   0  0  0  0  0  0  0  0  0  0  0  0
   61.6622   85.3978   30.8627 H   0  0  0  0  0  0  0  0  0  0  0  0
   60.5900   86.8390   30.8627 H   0  0  0  0  0  0  0  0  0  0  0  0
   59.2112   84.7409   30.9042 H   0  0  0  0  0  0  0  0  0  0  0  0
   59.1600   86.1003   33.5323 H   0  0  0  0  0  0  0  0  0  0  0  0
   58.1318   87.9813   32.7535 H   0  0  0  0  0  0  0  0  0  0  0  0
   59.1576   87.5915   31.3313 H   0  0  0  0  0  0  0  0  0  0  0  0
   57.4167   87.1488   31.3313 H   0  0  0  0  0  0  0  0  0  0  0  0
   57.2270   85.1540   33.8510 H   0  0  0  0  0  0  0  0  0  0  0  0
   56.6460   85.6300   32.4030 H   0  0  0  0  0  0  0  0  0  0  0  0
   60.1290   82.6930   34.5260 H   0  0  0  0  0  0  0  0  0  0  0  0
   58.5961   81.2937   33.2589 H   0  0  0  0  0  0  0  0  0  0  0  0
   57.6987   79.4648   31.8281 H   0  0  0  0  0  0  0  0  0  0  0  0
   58.7160   78.3240   29.0630 H   0  0  0  0  0  0  0  0  0  0  0  0
   54.2505   76.9041   28.6097 H   0  0  0  0  0  0  0  0  0  0  0  0
   54.3119   81.8353   27.5229 H   0  0  0  0  0  0  0  0  0  0  0  0
   52.4946   82.3260   26.2236 H   0  0  0  0  0  0  0  0  0  0  0  0
   53.5787   82.9751   24.9469 H   0  0  0  0  0  0  0  0  0  0  0  0
   53.1323   81.2352   24.9469 H   0  0  0  0  0  0  0  0  0  0  0  0
   56.1401   82.5532   25.2423 H   0  0  0  0  0  0  0  0  0  0  0  0
   55.0723   84.6495   27.1636 H   0  0  0  0  0  0  0  0  0  0  0  0
   55.9452   84.8734   25.6097 H   0  0  0  0  0  0  0  0  0  0  0  0
   54.2475   84.2866   25.6097 H   0  0  0  0  0  0  0  0  0  0  0  0
   56.2880   83.1540   28.0490 H   0  0  0  0  0  0  0  0  0  0  0  0
   59.7422   81.1137   28.4068 H   0  0  0  0  0  0  0  0  0  0  0  0
   60.6459   82.9451   29.8296 H   0  0  0  0  0  0  0  0  0  0  0  0
  1  2  1  0
  2  3  1  0
  3  4  1  0
  3  5  1  0
  2  6  1  0
  6  7  2  0
  6  8  2  0
  6  9  1  0
  9 10  1  0
 10 11  2  0
 11 12  1  0
 12 13  1  0
 13 14  1  0
 14 15  2  0
 15 16  1  0
 16 17  2  0
 17 18  1  0
 18 19  1  0
 18 20  1  0
 18 21  1  0
 17 22  1  0
 22 23  1  0
 23 24  1  0
 24 25  1  0
 24 26  1  0
 26 27  1  0
 26 28  1  0
 22 29  2  0
 12 30  2  0
 30 31  1  0
 31  9  2  0
 29 14  1  0
  1 32  1  0
  1 33  1  0
  1 34  1  0
  2 35  1  6
  3 36  1  1
  4 37  1  0
  4 38  1  0
  4 39  1  0
  5 40  1  0
  5 41  1  0
  7 42  1  0
 10 43  1  0
 11 44  1  0
 13 45  1  0
 16 46  1  0
 24 47  1  1
 25 48  1  0
 25 49  1  0
 25 50  1  0
 26 51  1  6
 27 52  1  0
 27 53  1  0
 27 54  1  0
 28 55  1  0
 30 56  1  0
 31 57  1  0
M  END
>  <meeko>  (1) 
{"is_sidechain": false}

>  <smiles>  (1) 
C[C@H]([C@@H](C)N)S(=N)(=O)c1ccc(Nc2ncc(C(F)(F)F)c(O[C@H](C)[C@@H](C)O)n2)cc1

>  <vina_score>  (1) 
-8.114

>  <job_id>  (1) 
be9c56e08f8fbf83

$$$$
