
     RDKit          3D

 33 34  0  0  0  0  0  0  0  0999 V2000
   60.0600   81.3590   28.3950 O   0  0  0  0  0  0  0  0  0  0  0  0
   59.2680   80.6350   29.3370 C   0  0  0  0  0  0  0  0  0  0  0  0
   58.3790   79.6250   28.6150 C   0  0  0  0  0  0  0  0  0  0  0  0
   57.5160   79.0350   29.5940 O   0  0  0  0  0  0  0  0  0  0  0  0
   56.3390   78.5030   29.1440 C   0  0  0  0  0  0  0  0  0  0  0  0
   55.6690   77.4130   29.6940 C   0  0  0  0  0  0  0  0  0  0  0  0
   54.4690   76.9740   29.1310 C   0  0  0  0  0  0  0  0  0  0  0  0
   53.9350   77.6250   28.0170 C   0  0  0  0  0  0  0  0  0  0  0  0
   54.5910   78.7250   27.4430 C   0  0  0  0  0  0  0  0  0  0  0  0
   54.0330   79.4120   26.2660 C   0  0  0  0  0  0  0  0  0  0  0  0
   53.7430   80.7850   26.3000 C   0  0  0  0  0  0  0  0  0  0  0  0
   53.2120   81.4400   25.1830 C   0  0  0  0  0  0  0  0  0  0  0  0
   52.9510   80.7350   24.0010 C   0  0  0  0  0  0  0  0  0  0  0  0
   52.4000   81.4430   22.7880 C   0  0  0  0  0  0  0  0  0  0  0  0
   52.1850   82.7730   22.9960 F   0  0  0  0  0  0  0  0  0  0  0  0
   51.2050   80.9300   22.3880 F   0  0  0  0  0  0  0  0  0  0  0  0
   53.2230   81.3670   21.7040 F   0  0  0  0  0  0  0  0  0  0  0  0
   53.2450   79.3650   23.9570 C   0  0  0  0  0  0  0  0  0  0  0  0
   53.7750   78.7150   25.0750 C   0  0  0  0  0  0  0  0  0  0  0  0
   55.7970   79.1480   28.0260 C   0  0  0  0  0  0  0  0  0  0  0  0
   59.4360   81.9220   27.8990 H   0  0  0  0  0  0  0  0  0  0  0  0
   59.9306   80.1019   30.0347 H   0  0  0  0  0  0  0  0  0  0  0  0
   58.6315   81.3425   29.8887 H   0  0  0  0  0  0  0  0  0  0  0  0
   57.7809   80.1340   27.8448 H   0  0  0  0  0  0  0  0  0  0  0  0
   58.9894   78.8544   28.1214 H   0  0  0  0  0  0  0  0  0  0  0  0
   56.0853   76.8978   30.5722 H   0  0  0  0  0  0  0  0  0  0  0  0
   53.9423   76.1121   29.5666 H   0  0  0  0  0  0  0  0  0  0  0  0
   52.9879   77.2711   27.5837 H   0  0  0  0  0  0  0  0  0  0  0  0
   53.9364   81.3558   27.2202 H   0  0  0  0  0  0  0  0  0  0  0  0
   52.9977   82.5177   25.2337 H   0  0  0  0  0  0  0  0  0  0  0  0
   53.0569   78.7965   23.0343 H   0  0  0  0  0  0  0  0  0  0  0  0
   53.9938   77.6383   25.0208 H   0  0  0  0  0  0  0  0  0  0  0  0
   56.3290   80.0079   27.5930 H   0  0  0  0  0  0  0  0  0  0  0  0
  1  2  1  0
  2  3  1  0
  3  4  1  0
  4  5  1  0
  5  6  1  0
  6  7  2  0
  7  8  1  0
  8  9  2  0
  9 10  1  0
 10 11  1  0
 11 12  2  0
 12 13  1  0
 13 14  1  0
 14 15  1  0
 14 16  1  0
 14 17  1  0
 13 18  2  0
 18 19  1  0
  9 20  1  0
 20  5  2  0
 19 10  2  0
  1 21  1  0
  2 22  1  0
  2 23  1  0
  3 24  1  0
  3 25  1  0
  6 26  1  0
  7 27  1  0
  8 28  1  0
 11 29  1  0
 12 30  1  0
 18 31  1  0
 19 32  1  0
 20 33  1  0
M  END
>  <meeko>  (1) 
{"is_sidechain": false}

>  <smiles>  (1) 
OCCOc1cccc(-c2ccc(C(F)(F)F)cc2)c1

>  <vina_score>  (1) 
-8.217

>  <job_id>  (1) 
bef0487de6019b55

$$$$
