
     RDKit          3D

 47 50  0  0  0  0  0  0  0  0999 V2000
   59.3100   82.7840   33.9730 N   0  0  0  0  0  0  0  0  0  0  0  0
   59.1330   83.5580   32.4900 S   0  0  0  0  0  0  0  0  0  0  0  0
   57.8190   84.1570   32.5200 O   0  0  0  0  0  0  0  0  0  0  0  0
   60.3290   84.3320   32.2390 O   0  0  0  0  0  0  0  0  0  0  0  0
   59.1120   82.1910   31.3630 C   0  0  0  0  0  0  0  0  0  0  0  0
   59.5680   82.3890   30.0580 C   0  0  0  0  0  0  0  0  0  0  0  0
   59.5040   81.3390   29.1410 C   0  0  0  0  0  0  0  0  0  0  0  0
   58.9810   80.0950   29.5140 C   0  0  0  0  0  0  0  0  0  0  0  0
   58.9350   79.0470   28.5760 N   0  0  0  0  0  0  0  0  0  0  0  0
   58.0730   79.0880   27.6590 N   0  0  0  0  0  0  0  0  0  0  0  0
   56.9430   79.8730   27.8210 C   0  0  0  0  0  0  0  0  0  0  0  0
   56.7350   80.8990   27.1760 O   0  0  0  0  0  0  0  0  0  0  0  0
   56.0560   79.3990   28.9610 C   0  0  0  0  0  0  0  0  0  0  0  0
   55.5720   77.6630   28.7320 S   0  0  0  0  0  0  0  0  0  0  0  0
   54.0680   77.9510   29.4160 N   0  0  0  0  0  0  0  0  0  0  0  0
   53.0570   78.1800   28.7080 N   0  0  0  0  0  0  0  0  0  0  0  0
   53.0350   77.9860   27.3570 C   0  0  0  0  0  0  0  0  0  0  0  0
   52.8910   76.6250   26.7380 C   0  0  0  0  0  0  0  0  0  0  0  0
   52.7760   75.5670   27.3320 O   0  0  0  0  0  0  0  0  0  0  0  0
   52.9360   76.8150   25.3730 N   0  0  0  0  0  0  0  0  0  0  0  0
   53.0710   78.1290   25.0860 C   0  0  0  0  0  0  0  0  0  0  0  0
   53.1700   78.7270   23.8950 C   0  0  0  0  0  0  0  0  0  0  0  0
   53.3170   80.1770   23.8330 C   0  0  0  0  0  0  0  0  0  0  0  0
   53.3620   80.9590   24.9370 C   0  0  0  0  0  0  0  0  0  0  0  0
   53.5000   82.3360   24.9090 N   0  0  0  0  0  0  0  0  0  0  0  0
   53.5480   83.1000   26.0470 C   0  0  0  0  0  0  0  0  0  0  0  0
   53.4600   82.5560   27.2700 C   0  0  0  0  0  0  0  0  0  0  0  0
   53.3100   81.1140   27.3890 C   0  0  0  0  0  0  0  0  0  0  0  0
   53.2610   80.3180   26.2960 C   0  0  0  0  0  0  0  0  0  0  0  0
   53.1140   78.8620   26.3390 C   0  0  0  0  0  0  0  0  0  0  0  0
   58.5600   79.9030   30.8370 C   0  0  0  0  0  0  0  0  0  0  0  0
   58.6080   80.9520   31.7610 C   0  0  0  0  0  0  0  0  0  0  0  0
   58.7350   81.9460   34.0660 H   0  0  0  0  0  0  0  0  0  0  0  0
   59.1190   83.4540   34.7200 H   0  0  0  0  0  0  0  0  0  0  0  0
   59.9746   83.3652   29.7552 H   0  0  0  0  0  0  0  0  0  0  0  0
   59.8684   81.4903   28.1142 H   0  0  0  0  0  0  0  0  0  0  0  0
   56.6055   79.4971   29.9088 H   0  0  0  0  0  0  0  0  0  0  0  0
   55.1461   80.0170   28.9769 H   0  0  0  0  0  0  0  0  0  0  0  0
   52.9270   76.0580   24.6910 H   0  0  0  0  0  0  0  0  0  0  0  0
   53.1409   78.1317   22.9705 H   0  0  0  0  0  0  0  0  0  0  0  0
   53.3947   80.6560   22.8458 H   0  0  0  0  0  0  0  0  0  0  0  0
   53.5810   82.7930   24.0100 H   0  0  0  0  0  0  0  0  0  0  0  0
   53.6619   84.1901   25.9542 H   0  0  0  0  0  0  0  0  0  0  0  0
   53.5006   83.1899   28.1681 H   0  0  0  0  0  0  0  0  0  0  0  0
   53.2348   80.6612   28.3886 H   0  0  0  0  0  0  0  0  0  0  0  0
   58.1879   78.9169   31.1520 H   0  0  0  0  0  0  0  0  0  0  0  0
   58.2521   80.8019   32.7909 H   0  0  0  0  0  0  0  0  0  0  0  0
  1  2  1  0
  2  3  2  0
  2  4  2  0
  2  5  1  0
  5  6  1  0
  6  7  2  0
  7  8  1  0
  8  9  1  0
  9 10  2  3
 10 11  1  0
 11 12  2  0
 11 13  1  0
 13 14  1  0
 14 15  1  0
 15 16  2  3
 16 17  1  0
 17 18  1  0
 18 19  2  0
 18 20  1  0
 20 21  1  0
 21 22  2  0
 22 23  1  0
 23 24  2  0
 24 25  1  0
 25 26  1  0
 26 27  2  0
 27 28  1  0
 28 29  2  0
 29 30  1  0
  8 31  2  0
 31 32  1  0
 32  5  2  0
 30 17  2  0
 30 21  1  0
 29 24  1  0
  1 33  1  0
  1 34  1  0
  6 35  1  0
  7 36  1  0
 13 37  1  0
 13 38  1  0
 20 39  1  0
 22 40  1  0
 23 41  1  0
 25 42  1  0
 26 43  1  0
 27 44  1  0
 28 45  1  0
 31 46  1  0
 32 47  1  0
M  END
>  <meeko>  (1) 
{"is_sidechain": false}

>  <smiles>  (1) 
NS(=O)(=O)c1ccc(N=NC(=O)CSN=Nc2c(=O)[nH]c3ccc4[nH]cccc4c23)cc1

>  <vina_score>  (1) 
-7.479

>  <job_id>  (1) 
bf26927ff0750ef0

$$$$
