
     RDKit          3D

 57 59  0  0  0  0  0  0  0  0999 V2000
   54.5660   83.5960   26.9160 C   0  0  0  0  0  0  0  0  0  0  0  0
   53.3200   82.7190   26.8890 C   0  0  0  0  0  0  0  0  0  0  0  0
   53.3590   81.5610   25.8770 C   0  0  2  0  0  0  0  0  0  0  0  0
   54.7270   81.0190   25.8230 N   0  0  0  0  0  0  0  0  0  0  0  0
   54.9390   79.9260   26.6620 C   0  0  0  0  0  0  0  0  0  0  0  0
   56.1230   79.9280   27.3010 N   0  0  0  0  0  0  0  0  0  0  0  0
   56.4400   78.9180   28.1680 C   0  0  0  0  0  0  0  0  0  0  0  0
   57.6680   78.8710   28.8530 N   0  0  0  0  0  0  0  0  0  0  0  0
   58.4140   79.9070   29.2930 C   0  0  0  0  0  0  0  0  0  0  0  0
   58.8190   80.2410   30.5670 C   0  0  0  0  0  0  0  0  0  0  0  0
   59.5920   81.4270   30.4750 C   0  0  0  0  0  0  0  0  0  0  0  0
   59.6400   81.7820   29.1450 C   0  0  0  0  0  0  0  0  0  0  0  0
   58.9240   80.8530   28.4400 N   0  0  0  0  0  0  0  0  0  0  0  0
   55.4810   77.9120   28.3630 C   0  0  0  0  0  0  0  0  0  0  0  0
   55.4720   76.7820   29.1540 N   0  0  0  0  0  0  0  0  0  0  0  0
   54.3000   76.2280   28.9300 C   0  0  0  0  0  0  0  0  0  0  0  0
   53.5540   76.9460   28.0290 N   0  0  0  0  0  0  0  0  0  0  0  0
   52.2060   76.6060   27.5970 C   0  0  0  0  0  0  0  0  0  0  0  0
   52.1850   75.3570   26.7160 C   0  0  0  0  0  0  0  0  0  0  0  0
   51.2350   76.4810   28.7700 C   0  0  0  0  0  0  0  0  0  0  0  0
   54.3040   78.0260   27.6470 C   0  0  0  0  0  0  0  0  0  0  0  0
   53.9780   78.9930   26.7790 N   0  0  0  0  0  0  0  0  0  0  0  0
   52.9310   82.0240   24.4670 C   0  0  0  0  0  0  0  0  0  0  0  0
   52.9580   83.2310   24.1890 O   0  0  0  0  0  0  0  0  0  0  0  0
   52.3930   81.0040   23.4420 C   0  0  0  0  0  0  0  0  0  0  0  0
   52.8060   81.4840   22.0380 C   0  0  0  0  0  0  0  0  0  0  0  0
   52.9360   79.5830   23.6330 C   0  0  0  0  0  0  0  0  0  0  0  0
   50.8610   80.9860   23.5380 C   0  0  0  0  0  0  0  0  0  0  0  0
   54.8508   83.7964   27.9594 H   0  0  0  0  0  0  0  0  0  0  0  0
   55.3903   83.0778   26.4040 H   0  0  0  0  0  0  0  0  0  0  0  0
   54.3564   84.5468   26.4040 H   0  0  0  0  0  0  0  0  0  0  0  0
   53.1834   82.2900   27.8927 H   0  0  0  0  0  0  0  0  0  0  0  0
   52.4923   83.3722   26.5754 H   0  0  0  0  0  0  0  0  0  0  0  0
   52.6504   80.7870   26.2069 H   0  0  0  0  0  0  0  0  0  0  0  0
   54.9400   80.6560   24.8940 H   0  0  0  0  0  0  0  0  0  0  0  0
   57.9840   77.9130   28.9890 H   0  0  0  0  0  0  0  0  0  0  0  0
   58.5852   79.6880   31.4887 H   0  0  0  0  0  0  0  0  0  0  0  0
   60.0652   81.9635   31.3106 H   0  0  0  0  0  0  0  0  0  0  0  0
   60.1604   82.6554   28.7250 H   0  0  0  0  0  0  0  0  0  0  0  0
   58.7730   80.8320   27.4380 H   0  0  0  0  0  0  0  0  0  0  0  0
   53.9581   75.2985   29.4086 H   0  0  0  0  0  0  0  0  0  0  0  0
   51.8563   77.4469   26.9801 H   0  0  0  0  0  0  0  0  0  0  0  0
   52.1699   74.4598   27.3522 H   0  0  0  0  0  0  0  0  0  0  0  0
   51.2870   75.3713   26.0809 H   0  0  0  0  0  0  0  0  0  0  0  0
   53.0830   75.3411   26.0809 H   0  0  0  0  0  0  0  0  0  0  0  0
   51.7917   76.5527   29.7160 H   0  0  0  0  0  0  0  0  0  0  0  0
   50.4925   77.2910   28.7192 H   0  0  0  0  0  0  0  0  0  0  0  0
   50.7218   75.5094   28.7192 H   0  0  0  0  0  0  0  0  0  0  0  0
   53.5209   82.3149   22.1301 H   0  0  0  0  0  0  0  0  0  0  0  0
   53.2768   80.6542   21.4906 H   0  0  0  0  0  0  0  0  0  0  0  0
   51.9152   81.8257   21.4906 H   0  0  0  0  0  0  0  0  0  0  0  0
   53.0197   79.3638   24.7077 H   0  0  0  0  0  0  0  0  0  0  0  0
   52.2499   78.8622   23.1642 H   0  0  0  0  0  0  0  0  0  0  0  0
   53.9279   79.5034   23.1642 H   0  0  0  0  0  0  0  0  0  0  0  0
   50.5599   80.9825   24.5960 H   0  0  0  0  0  0  0  0  0  0  0  0
   50.4521   81.8794   23.0434 H   0  0  0  0  0  0  0  0  0  0  0  0
   50.4732   80.0832   23.0434 H   0  0  0  0  0  0  0  0  0  0  0  0
  1  2  1  0
  2  3  1  0
  3  4  1  0
  4  5  1  0
  5  6  2  0
  6  7  1  0
  7  8  1  0
  8  9  1  0
  9 10  2  0
 10 11  1  0
 11 12  2  0
 12 13  1  0
  7 14  2  0
 14 15  1  0
 15 16  2  0
 16 17  1  0
 17 18  1  0
 18 19  1  0
 18 20  1  0
 17 21  1  0
 21 22  2  0
  3 23  1  0
 23 24  2  0
 23 25  1  0
 25 26  1  0
 25 27  1  0
 25 28  1  0
 22  5  1  0
 13  9  1  0
 21 14  1  0
  1 29  1  0
  1 30  1  0
  1 31  1  0
  2 32  1  0
  2 33  1  0
  3 34  1  1
  4 35  1  0
  8 36  1  0
 10 37  1  0
 11 38  1  0
 12 39  1  0
 13 40  1  0
 16 41  1  0
 18 42  1  0
 19 43  1  0
 19 44  1  0
 19 45  1  0
 20 46  1  0
 20 47  1  0
 20 48  1  0
 26 49  1  0
 26 50  1  0
 26 51  1  0
 27 52  1  0
 27 53  1  0
 27 54  1  0
 28 55  1  0
 28 56  1  0
 28 57  1  0
M  END
>  <meeko>  (1) 
{"is_sidechain": false}

>  <smiles>  (1) 
CC[C@H](Nc1nc(Nc2ccc[nH]2)c2ncn(C(C)C)c2n1)C(=O)C(C)(C)C

>  <vina_score>  (1) 
-7.983

>  <job_id>  (1) 
bf2a8d37f0741de3

$$$$
