
     RDKit          3D

 49 52  0  0  0  0  0  0  0  0999 V2000
   59.3540   80.2550   35.3720 O   0  0  0  0  0  0  0  0  0  0  0  0
   60.1710   81.0150   34.8400 C   0  0  0  0  0  0  0  0  0  0  0  0
   61.6930   80.9240   35.1480 C   0  0  0  0  0  0  0  0  0  0  0  0
   62.1210   80.1840   36.4510 C   0  0  0  0  0  0  0  0  0  0  0  0
   63.3390   79.6530   35.6730 C   0  0  0  0  0  0  0  0  0  0  0  0
   62.5100   79.8380   34.3900 C   0  0  0  0  0  0  0  0  0  0  0  0
   59.7540   82.0060   33.9410 N   0  0  0  0  0  0  0  0  0  0  0  0
   60.2710   83.3690   33.9520 C   0  0  0  0  0  0  0  0  0  0  0  0
   61.0980   83.7490   32.7280 C   0  0  0  0  0  0  0  0  0  0  0  0
   60.2430   83.8590   31.4570 C   0  0  0  0  0  0  0  0  0  0  0  0
   59.7180   82.5660   30.8990 C   0  0  0  0  0  0  0  0  0  0  0  0
   59.9760   82.2610   29.5740 C   0  0  0  0  0  0  0  0  0  0  0  0
   59.5740   81.1390   28.9530 N   0  0  0  0  0  0  0  0  0  0  0  0
   58.8930   80.2590   29.6900 C   0  0  0  0  0  0  0  0  0  0  0  0
   58.4460   79.0710   29.1380 N   0  0  0  0  0  0  0  0  0  0  0  0
   57.7420   79.2290   27.8850 C   0  0  0  0  0  0  0  0  0  0  0  0
   56.3230   78.7330   28.0450 C   0  0  0  0  0  0  0  0  0  0  0  0
   56.0170   77.7650   29.0130 C   0  0  0  0  0  0  0  0  0  0  0  0
   54.7080   77.3070   29.1720 C   0  0  0  0  0  0  0  0  0  0  0  0
   53.6910   77.8150   28.3660 C   0  0  0  0  0  0  0  0  0  0  0  0
   53.9800   78.7820   27.4050 C   0  0  0  0  0  0  0  0  0  0  0  0
   55.2890   79.2420   27.2460 C   0  0  0  0  0  0  0  0  0  0  0  0
   58.5870   80.4540   30.9770 N   0  0  0  0  0  0  0  0  0  0  0  0
   59.0210   81.5850   31.5900 C   0  0  0  0  0  0  0  0  0  0  0  0
   58.6330   81.7060   33.0480 C   0  0  0  0  0  0  0  0  0  0  0  0
   61.8657   82.0005   35.0021 H   0  0  0  0  0  0  0  0  0  0  0  0
   62.3686   80.8461   37.2938 H   0  0  0  0  0  0  0  0  0  0  0  0
   61.4356   79.5075   36.9827 H   0  0  0  0  0  0  0  0  0  0  0  0
   64.2360   80.2866   35.7357 H   0  0  0  0  0  0  0  0  0  0  0  0
   63.8134   78.6927   35.9235 H   0  0  0  0  0  0  0  0  0  0  0  0
   63.0796   80.2129   33.5269 H   0  0  0  0  0  0  0  0  0  0  0  0
   62.0182   78.9883   33.8939 H   0  0  0  0  0  0  0  0  0  0  0  0
   59.4164   84.0587   34.0152 H   0  0  0  0  0  0  0  0  0  0  0  0
   60.9479   83.4366   34.8164 H   0  0  0  0  0  0  0  0  0  0  0  0
   61.5804   84.7198   32.9147 H   0  0  0  0  0  0  0  0  0  0  0  0
   61.8417   82.9550   32.5651 H   0  0  0  0  0  0  0  0  0  0  0  0
   59.3798   84.5007   31.6872 H   0  0  0  0  0  0  0  0  0  0  0  0
   60.9132   84.2636   30.6843 H   0  0  0  0  0  0  0  0  0  0  0  0
   60.5524   82.9904   28.9860 H   0  0  0  0  0  0  0  0  0  0  0  0
   57.9290   78.5900   29.8650 H   0  0  0  0  0  0  0  0  0  0  0  0
   57.7303   80.2917   27.6012 H   0  0  0  0  0  0  0  0  0  0  0  0
   58.2497   78.6485   27.1006 H   0  0  0  0  0  0  0  0  0  0  0  0
   56.8163   77.3630   29.6530 H   0  0  0  0  0  0  0  0  0  0  0  0
   54.4795   76.5460   29.9327 H   0  0  0  0  0  0  0  0  0  0  0  0
   52.6597   77.4526   28.4884 H   0  0  0  0  0  0  0  0  0  0  0  0
   53.1759   79.1835   26.7708 H   0  0  0  0  0  0  0  0  0  0  0  0
   55.5105   80.0087   26.4890 H   0  0  0  0  0  0  0  0  0  0  0  0
   57.8906   82.5122   33.1424 H   0  0  0  0  0  0  0  0  0  0  0  0
   58.2367   80.7264   33.3536 H   0  0  0  0  0  0  0  0  0  0  0  0
  1  2  2  0
  2  3  1  0
  3  4  1  0
  4  5  1  0
  5  6  1  0
  2  7  1  0
  7  8  1  0
  8  9  1  0
  9 10  1  0
 10 11  1  0
 11 12  2  0
 12 13  1  0
 13 14  2  0
 14 15  1  0
 15 16  1  0
 16 17  1  0
 17 18  2  0
 18 19  1  0
 19 20  2  0
 20 21  1  0
 21 22  2  0
 14 23  1  0
 23 24  2  0
 24 25  1  0
  6  3  1  0
 25  7  1  0
 24 11  1  0
 22 17  1  0
  3 26  1  0
  4 27  1  0
  4 28  1  0
  5 29  1  0
  5 30  1  0
  6 31  1  0
  6 32  1  0
  8 33  1  0
  8 34  1  0
  9 35  1  0
  9 36  1  0
 10 37  1  0
 10 38  1  0
 12 39  1  0
 15 40  1  0
 16 41  1  0
 16 42  1  0
 18 43  1  0
 19 44  1  0
 20 45  1  0
 21 46  1  0
 22 47  1  0
 25 48  1  0
 25 49  1  0
M  END
>  <meeko>  (1) 
{"is_sidechain": false}

>  <smiles>  (1) 
O=C(C1CCC1)N1CCCc2cnc(NCc3ccccc3)nc2C1

>  <vina_score>  (1) 
-6.528

>  <job_id>  (1) 
bf2a8147a7bf473e

$$$$
