
     RDKit          3D

 47 49  0  0  0  0  0  0  0  0999 V2000
   60.2580   82.4240   33.9440 C   0  0  0  0  0  0  0  0  0  0  0  0
   59.1700   82.3530   32.9720 N   0  0  0  0  0  0  0  0  0  0  0  0
   59.5770   82.8750   31.6510 C   0  0  0  0  0  0  0  0  0  0  0  0
   59.7770   81.8120   30.5550 C   0  0  0  0  0  0  0  0  0  0  0  0
   58.6060   80.9490   30.4000 N   0  0  0  0  0  0  0  0  0  0  0  0
   58.4680   80.2360   29.2150 C   0  0  0  0  0  0  0  0  0  0  0  0
   59.3190   80.2320   28.3300 O   0  0  0  0  0  0  0  0  0  0  0  0
   57.2420   79.4340   29.0000 C   0  0  0  0  0  0  0  0  0  0  0  0
   56.8790   78.4240   29.8940 C   0  0  0  0  0  0  0  0  0  0  0  0
   55.7080   77.7010   29.6760 C   0  0  0  0  0  0  0  0  0  0  0  0
   54.8980   78.0000   28.5770 C   0  0  0  0  0  0  0  0  0  0  0  0
   55.2320   79.0320   27.6800 C   0  0  0  0  0  0  0  0  0  0  0  0
   54.3630   79.3530   26.5340 C   0  0  0  0  0  0  0  0  0  0  0  0
   54.0600   78.3930   25.5640 C   0  0  0  0  0  0  0  0  0  0  0  0
   53.2330   78.7440   24.5100 C   0  0  0  0  0  0  0  0  0  0  0  0
   52.6950   79.9700   24.3520 N   0  0  0  0  0  0  0  0  0  0  0  0
   52.9920   80.9060   25.2830 C   0  0  0  0  0  0  0  0  0  0  0  0
   52.4060   82.2880   25.1330 C   0  0  0  0  0  0  0  0  0  0  0  0
   52.7270   83.2320   26.2870 C   0  0  0  0  0  0  0  0  0  0  0  0
   53.3090   84.4270   25.7680 O   0  0  0  0  0  0  0  0  0  0  0  0
   53.8120   80.6300   26.3770 C   0  0  0  0  0  0  0  0  0  0  0  0
   56.4150   79.7500   27.9140 C   0  0  0  0  0  0  0  0  0  0  0  0
   57.8100   80.7250   31.6150 C   0  0  0  0  0  0  0  0  0  0  0  0
   58.6300   80.9810   32.8930 C   0  0  0  0  0  0  0  0  0  0  0  0
   59.8424   82.3969   34.9621 H   0  0  0  0  0  0  0  0  0  0  0  0
   60.9339   81.5681   33.8009 H   0  0  0  0  0  0  0  0  0  0  0  0
   60.8170   83.3605   33.8009 H   0  0  0  0  0  0  0  0  0  0  0  0
   58.8001   83.5742   31.3081 H   0  0  0  0  0  0  0  0  0  0  0  0
   60.5599   83.3457   31.8003 H   0  0  0  0  0  0  0  0  0  0  0  0
   59.9706   82.3210   29.5993 H   0  0  0  0  0  0  0  0  0  0  0  0
   60.6260   81.1782   30.8510 H   0  0  0  0  0  0  0  0  0  0  0  0
   57.5134   78.2009   30.7645 H   0  0  0  0  0  0  0  0  0  0  0  0
   55.4213   76.8956   30.3682 H   0  0  0  0  0  0  0  0  0  0  0  0
   53.9805   77.4168   28.4096 H   0  0  0  0  0  0  0  0  0  0  0  0
   54.4717   77.3755   25.6367 H   0  0  0  0  0  0  0  0  0  0  0  0
   53.0013   77.9766   23.7568 H   0  0  0  0  0  0  0  0  0  0  0  0
   52.7990   82.7305   24.2058 H   0  0  0  0  0  0  0  0  0  0  0  0
   51.3127   82.1677   25.1179 H   0  0  0  0  0  0  0  0  0  0  0  0
   51.8020   83.4786   26.8288 H   0  0  0  0  0  0  0  0  0  0  0  0
   53.4334   82.7462   26.9762 H   0  0  0  0  0  0  0  0  0  0  0  0
   54.2600   84.2480   25.6650 H   0  0  0  0  0  0  0  0  0  0  0  0
   54.0256   81.4159   27.1164 H   0  0  0  0  0  0  0  0  0  0  0  0
   56.6961   80.5702   27.2371 H   0  0  0  0  0  0  0  0  0  0  0  0
   56.9457   81.4054   31.6046 H   0  0  0  0  0  0  0  0  0  0  0  0
   57.4865   79.6737   31.6220 H   0  0  0  0  0  0  0  0  0  0  0  0
   57.9814   80.8097   33.7648 H   0  0  0  0  0  0  0  0  0  0  0  0
   59.4877   80.2925   32.8747 H   0  0  0  0  0  0  0  0  0  0  0  0
  1  2  1  0
  2  3  1  0
  3  4  1  0
  4  5  1  0
  5  6  1  0
  6  7  2  0
  6  8  1  0
  8  9  1  0
  9 10  2  0
 10 11  1  0
 11 12  2  0
 12 13  1  0
 13 14  2  0
 14 15  1  0
 15 16  2  0
 16 17  1  0
 17 18  1  0
 18 19  1  0
 19 20  1  0
 17 21  2  0
 12 22  1  0
  5 23  1  0
 23 24  1  0
 24  2  1  0
 22  8  2  0
 21 13  1  0
  1 25  1  0
  1 26  1  0
  1 27  1  0
  3 28  1  0
  3 29  1  0
  4 30  1  0
  4 31  1  0
  9 32  1  0
 10 33  1  0
 11 34  1  0
 14 35  1  0
 15 36  1  0
 18 37  1  0
 18 38  1  0
 19 39  1  0
 19 40  1  0
 20 41  1  0
 21 42  1  0
 22 43  1  0
 23 44  1  0
 23 45  1  0
 24 46  1  0
 24 47  1  0
M  END
>  <meeko>  (1) 
{"is_sidechain": false}

>  <smiles>  (1) 
CN1CCN(C(=O)c2cccc(-c3ccnc(CCO)c3)c2)CC1

>  <vina_score>  (1) 
-8.009

>  <job_id>  (1) 
bf61b0273737b9ad

$$$$
