
     RDKit          3D

 50 52  0  0  0  0  0  0  0  0999 V2000
   53.1870   80.6430   26.3640 C   0  0  0  0  0  0  0  0  0  0  0  0
   53.1690   79.1290   26.1420 C   0  0  0  0  0  0  0  0  0  0  0  0
   53.6850   78.8010   24.7340 C   0  0  0  0  0  0  0  0  0  0  0  0
   53.9700   78.4290   27.2320 C   0  0  0  0  0  0  0  0  0  0  0  0
   55.0740   79.1010   27.6290 N   0  0  0  0  0  0  0  0  0  0  0  0
   55.8460   78.5460   28.5710 C   0  0  0  0  0  0  0  0  0  0  0  0
   57.0470   79.2750   28.9970 C   0  0  0  0  0  0  0  0  0  0  0  0
   57.4320   79.3780   30.3430 C   0  0  0  0  0  0  0  0  0  0  0  0
   58.5810   80.0810   30.7040 C   0  0  0  0  0  0  0  0  0  0  0  0
   59.3290   80.6710   29.7010 C   0  0  0  0  0  0  0  0  0  0  0  0
   60.4630   81.3570   30.0930 O   0  0  0  0  0  0  0  0  0  0  0  0
   60.3390   82.1630   31.2890 C   0  0  0  0  0  0  0  0  0  0  0  0
   59.9650   83.6570   31.0940 C   0  0  0  0  0  0  0  0  0  0  0  0
   61.4710   83.9750   31.0970 C   0  0  0  0  0  0  0  0  0  0  0  0
   61.6850   82.6630   31.8720 C   0  0  0  0  0  0  0  0  0  0  0  0
   59.0110   80.6070   28.3950 N   0  0  0  0  0  0  0  0  0  0  0  0
   57.8840   79.9150   28.0800 C   0  0  0  0  0  0  0  0  0  0  0  0
   55.5890   77.3680   29.1420 N   0  0  0  0  0  0  0  0  0  0  0  0
   54.4890   76.7090   28.7550 C   0  0  0  0  0  0  0  0  0  0  0  0
   54.3040   75.5000   29.4230 N   0  0  0  0  0  0  0  0  0  0  0  0
   53.5880   77.2070   27.8110 C   0  0  0  0  0  0  0  0  0  0  0  0
   52.3180   76.4880   27.3770 C   0  0  0  0  0  0  0  0  0  0  0  0
   52.6290   75.0670   26.8980 C   0  0  0  0  0  0  0  0  0  0  0  0
   51.1710   76.4820   28.3950 C   0  0  0  0  0  0  0  0  0  0  0  0
   53.1895   80.8553   27.4433 H   0  0  0  0  0  0  0  0  0  0  0  0
   54.0903   81.0703   25.9041 H   0  0  0  0  0  0  0  0  0  0  0  0
   52.2941   81.0917   25.9041 H   0  0  0  0  0  0  0  0  0  0  0  0
   52.1365   78.7555   26.2088 H   0  0  0  0  0  0  0  0  0  0  0  0
   54.6111   78.2124   24.8108 H   0  0  0  0  0  0  0  0  0  0  0  0
   52.9250   78.2198   24.1911 H   0  0  0  0  0  0  0  0  0  0  0  0
   53.8887   79.7358   24.1911 H   0  0  0  0  0  0  0  0  0  0  0  0
   56.8205   78.8988   31.1217 H   0  0  0  0  0  0  0  0  0  0  0  0
   58.8844   80.1641   31.7581 H   0  0  0  0  0  0  0  0  0  0  0  0
   59.6688   81.4787   31.8299 H   0  0  0  0  0  0  0  0  0  0  0  0
   59.4523   83.8802   30.1467 H   0  0  0  0  0  0  0  0  0  0  0  0
   59.2675   84.1689   31.7733 H   0  0  0  0  0  0  0  0  0  0  0  0
   61.9358   83.9989   30.1003 H   0  0  0  0  0  0  0  0  0  0  0  0
   61.8566   84.9349   31.4711 H   0  0  0  0  0  0  0  0  0  0  0  0
   62.5641   82.0830   31.5545 H   0  0  0  0  0  0  0  0  0  0  0  0
   61.8782   82.6605   32.9549 H   0  0  0  0  0  0  0  0  0  0  0  0
   57.6089   79.8542   27.0167 H   0  0  0  0  0  0  0  0  0  0  0  0
   53.6810   75.6230   30.2140 H   0  0  0  0  0  0  0  0  0  0  0  0
   53.9370   74.7870   28.8060 H   0  0  0  0  0  0  0  0  0  0  0  0
   51.9375   77.0924   26.5404 H   0  0  0  0  0  0  0  0  0  0  0  0
   52.7728   74.4099   27.7684 H   0  0  0  0  0  0  0  0  0  0  0  0
   51.7914   74.6932   26.2908 H   0  0  0  0  0  0  0  0  0  0  0  0
   53.5462   75.0772   26.2908 H   0  0  0  0  0  0  0  0  0  0  0  0
   51.5852   76.4842   29.4140 H   0  0  0  0  0  0  0  0  0  0  0  0
   50.5479   77.3769   28.2506 H   0  0  0  0  0  0  0  0  0  0  0  0
   50.5573   75.5806   28.2506 H   0  0  0  0  0  0  0  0  0  0  0  0
  1  2  1  0
  2  3  1  0
  2  4  1  0
  4  5  2  0
  5  6  1  0
  6  7  1  0
  7  8  2  0
  8  9  1  0
  9 10  2  0
 10 11  1  0
 11 12  1  0
 12 13  1  0
 13 14  1  0
 14 15  1  0
 10 16  1  0
 16 17  2  0
  6 18  2  0
 18 19  1  0
 19 20  1  0
 19 21  2  0
 21 22  1  0
 22 23  1  0
 22 24  1  0
 21  4  1  0
 17  7  1  0
 15 12  1  0
  1 25  1  0
  1 26  1  0
  1 27  1  0
  2 28  1  0
  3 29  1  0
  3 30  1  0
  3 31  1  0
  8 32  1  0
  9 33  1  0
 12 34  1  0
 13 35  1  0
 13 36  1  0
 14 37  1  0
 14 38  1  0
 15 39  1  0
 15 40  1  0
 17 41  1  0
 20 42  1  0
 20 43  1  0
 22 44  1  0
 23 45  1  0
 23 46  1  0
 23 47  1  0
 24 48  1  0
 24 49  1  0
 24 50  1  0
M  END
>  <meeko>  (1) 
{"is_sidechain": false}

>  <smiles>  (1) 
CC(C)c1nc(-c2ccc(OC3CCC3)nc2)nc(N)c1C(C)C

>  <vina_score>  (1) 
-8.004

>  <job_id>  (1) 
bfa35f240e6e7fc0

$$$$
