
     RDKit          3D

 57 60  0  0  0  0  0  0  0  0999 V2000
   64.9010   84.7440   34.0100 C   0  0  0  0  0  0  0  0  0  0  0  0
   63.5400   84.2820   34.4590 C   0  0  0  0  0  0  0  0  0  0  0  0
   63.2130   84.2620   35.6400 O   0  0  0  0  0  0  0  0  0  0  0  0
   62.7030   83.9090   33.4330 N   0  0  0  0  0  0  0  0  0  0  0  0
   61.2800   83.5520   33.6880 C   0  0  0  0  0  0  0  0  0  0  0  0
   60.9520   82.0570   33.5030 C   0  0  0  0  0  0  0  0  0  0  0  0
   60.5920   82.3810   32.1490 N   0  0  0  0  0  0  0  0  0  0  0  0
   59.8520   81.5830   31.2550 C   0  0  0  0  0  0  0  0  0  0  0  0
   60.0520   81.6680   29.8760 C   0  0  0  0  0  0  0  0  0  0  0  0
   59.3220   80.8630   28.9900 C   0  0  0  0  0  0  0  0  0  0  0  0
   58.3750   79.9380   29.4520 C   0  0  0  0  0  0  0  0  0  0  0  0
   57.6750   79.1740   28.5130 N   0  0  0  0  0  0  0  0  0  0  0  0
   56.3550   78.7500   28.3990 C   0  0  0  0  0  0  0  0  0  0  0  0
   55.7450   78.0410   29.3620 N   0  0  0  0  0  0  0  0  0  0  0  0
   54.4670   77.6680   29.1450 C   0  0  0  0  0  0  0  0  0  0  0  0
   53.7730   77.9860   28.0100 C   0  0  0  0  0  0  0  0  0  0  0  0
   52.5050   77.5920   27.8400 F   0  0  0  0  0  0  0  0  0  0  0  0
   54.4620   78.7320   27.0810 C   0  0  0  0  0  0  0  0  0  0  0  0
   53.8740   79.1230   25.8070 C   0  0  0  0  0  0  0  0  0  0  0  0
   53.3270   78.3020   24.8380 C   0  0  0  0  0  0  0  0  0  0  0  0
   52.8950   79.0110   23.7590 N   0  0  0  0  0  0  0  0  0  0  0  0
   53.1530   80.2710   24.0340 C   0  0  0  0  0  0  0  0  0  0  0  0
   52.8650   81.4040   23.1150 C   0  0  0  0  0  0  0  0  0  0  0  0
   53.7190   80.4020   25.2960 N   0  0  0  0  0  0  0  0  0  0  0  0
   54.0080   81.6900   25.9270 C   0  0  0  0  0  0  0  0  0  0  0  0
   53.3100   81.9210   27.2700 C   0  0  0  0  0  0  0  0  0  0  0  0
   55.5060   81.9860   25.9910 C   0  0  0  0  0  0  0  0  0  0  0  0
   55.7460   79.1140   27.2560 N   0  0  0  0  0  0  0  0  0  0  0  0
   58.1850   79.8510   30.8310 C   0  0  0  0  0  0  0  0  0  0  0  0
   58.9150   80.6560   31.7190 C   0  0  0  0  0  0  0  0  0  0  0  0
   60.3460   83.7620   32.4800 C   0  0  0  0  0  0  0  0  0  0  0  0
   65.5252   84.9559   34.8906 H   0  0  0  0  0  0  0  0  0  0  0  0
   65.3747   83.9563   33.4057 H   0  0  0  0  0  0  0  0  0  0  0  0
   64.7973   85.6573   33.4057 H   0  0  0  0  0  0  0  0  0  0  0  0
   62.9680   84.1730   32.4890 H   0  0  0  0  0  0  0  0  0  0  0  0
   61.1581   84.0805   34.6450 H   0  0  0  0  0  0  0  0  0  0  0  0
   61.8140   81.3807   33.6012 H   0  0  0  0  0  0  0  0  0  0  0  0
   60.2656   81.5232   34.1767 H   0  0  0  0  0  0  0  0  0  0  0  0
   60.7932   82.3770   29.4786 H   0  0  0  0  0  0  0  0  0  0  0  0
   59.4962   80.9593   27.9082 H   0  0  0  0  0  0  0  0  0  0  0  0
   58.2140   78.7800   27.7560 H   0  0  0  0  0  0  0  0  0  0  0  0
   53.9568   77.0779   29.9205 H   0  0  0  0  0  0  0  0  0  0  0  0
   53.2502   77.2084   24.9281 H   0  0  0  0  0  0  0  0  0  0  0  0
   52.6361   82.3046   23.7037 H   0  0  0  0  0  0  0  0  0  0  0  0
   53.7434   81.5940   22.4807 H   0  0  0  0  0  0  0  0  0  0  0  0
   52.0025   81.1515   22.4807 H   0  0  0  0  0  0  0  0  0  0  0  0
   53.5558   82.4315   25.2520 H   0  0  0  0  0  0  0  0  0  0  0  0
   54.0065   81.6905   28.0896 H   0  0  0  0  0  0  0  0  0  0  0  0
   52.9932   82.9719   27.3426 H   0  0  0  0  0  0  0  0  0  0  0  0
   52.4288   81.2666   27.3426 H   0  0  0  0  0  0  0  0  0  0  0  0
   55.8228   82.0486   27.0425 H   0  0  0  0  0  0  0  0  0  0  0  0
   56.0608   81.1801   25.4883 H   0  0  0  0  0  0  0  0  0  0  0  0
   55.7126   82.9423   25.4883 H   0  0  0  0  0  0  0  0  0  0  0  0
   57.4489   79.1377   31.2302 H   0  0  0  0  0  0  0  0  0  0  0  0
   58.7463   80.5553   32.8013 H   0  0  0  0  0  0  0  0  0  0  0  0
   60.7099   84.4862   31.7363 H   0  0  0  0  0  0  0  0  0  0  0  0
   59.3278   84.1629   32.5922 H   0  0  0  0  0  0  0  0  0  0  0  0
  1  2  1  0
  2  3  2  0
  2  4  1  0
  4  5  1  0
  5  6  1  0
  6  7  1  0
  7  8  1  0
  8  9  1  0
  9 10  2  0
 10 11  1  0
 11 12  1  0
 12 13  1  0
 13 14  2  0
 14 15  1  0
 15 16  2  0
 16 17  1  0
 16 18  1  0
 18 19  1  0
 19 20  2  0
 20 21  1  0
 21 22  2  0
 22 23  1  0
 22 24  1  0
 24 25  1  0
 25 26  1  0
 25 27  1  0
 18 28  2  0
 11 29  2  0
 29 30  1  0
  7 31  1  0
 31  5  1  0
 30  8  2  0
 28 13  1  0
 24 19  1  0
  1 32  1  0
  1 33  1  0
  1 34  1  0
  4 35  1  0
  5 36  1  0
  6 37  1  0
  6 38  1  0
  9 39  1  0
 10 40  1  0
 12 41  1  0
 15 42  1  0
 20 43  1  0
 23 44  1  0
 23 45  1  0
 23 46  1  0
 25 47  1  0
 26 48  1  0
 26 49  1  0
 26 50  1  0
 27 51  1  0
 27 52  1  0
 27 53  1  0
 29 54  1  0
 30 55  1  0
 31 56  1  0
 31 57  1  0
M  END
>  <meeko>  (1) 
{"is_sidechain": false}

>  <smiles>  (1) 
CC(=O)NC1CN(c2ccc(Nc3ncc(F)c(-c4cnc(C)n4C(C)C)n3)cc2)C1

>  <vina_score>  (1) 
-8.712

>  <job_id>  (1) 
bfce55cb2f04b719

$$$$
