
     RDKit          3D

 30 34  0  0  0  0  0  0  0  0999 V2000
   58.9190   79.1070   29.1870 O   0  0  0  0  0  0  0  0  0  0  0  0
   57.9540   79.4900   28.5590 C   0  0  0  0  0  0  0  0  0  0  0  0
   57.8100   80.6630   27.8350 N   0  0  0  0  0  0  0  0  0  0  0  0
   56.5380   80.7050   27.2700 C   0  0  0  0  0  0  0  0  0  0  0  0
   55.9570   81.6650   26.4790 C   0  0  0  0  0  0  0  0  0  0  0  0
   54.6350   81.4560   26.0350 C   0  0  0  0  0  0  0  0  0  0  0  0
   54.0210   82.4230   25.2260 C   0  0  0  0  0  0  0  0  0  0  0  0
   52.7150   82.2500   24.7680 C   0  0  0  0  0  0  0  0  0  0  0  0
   52.0130   81.1090   25.1150 C   0  0  0  0  0  0  0  0  0  0  0  0
   50.7390   80.9820   24.6450 O   0  0  0  0  0  0  0  0  0  0  0  0
   52.5910   80.1270   25.9180 C   0  0  0  0  0  0  0  0  0  0  0  0
   53.9090   80.2670   26.3980 C   0  0  0  0  0  0  0  0  0  0  0  0
   54.5510   79.2790   27.2310 C   0  0  0  0  0  0  0  0  0  0  0  0
   54.1190   78.0380   27.7510 C   0  0  0  0  0  0  0  0  0  0  0  0
   54.9310   77.2310   28.5520 C   0  0  0  0  0  0  0  0  0  0  0  0
   56.2250   77.5730   28.9090 C   0  0  0  0  0  0  0  0  0  0  0  0
   56.6640   78.7810   28.4120 C   0  0  0  0  0  0  0  0  0  0  0  0
   55.8580   79.5750   27.6200 C   0  0  0  0  0  0  0  0  0  0  0  0
   54.3060   76.0840   28.9350 O   0  0  0  0  0  0  0  0  0  0  0  0
   53.0240   76.2390   28.3030 C   0  0  0  0  0  0  0  0  0  0  0  0
   52.8960   77.4640   27.5550 O   0  0  0  0  0  0  0  0  0  0  0  0
   58.5330   81.3610   27.7470 H   0  0  0  0  0  0  0  0  0  0  0  0
   56.5088   82.5743   26.1986 H   0  0  0  0  0  0  0  0  0  0  0  0
   54.5772   83.3306   24.9488 H   0  0  0  0  0  0  0  0  0  0  0  0
   52.2454   83.0166   24.1342 H   0  0  0  0  0  0  0  0  0  0  0  0
   50.5770   81.6820   23.9920 H   0  0  0  0  0  0  0  0  0  0  0  0
   52.0105   79.2303   26.1808 H   0  0  0  0  0  0  0  0  0  0  0  0
   56.8543   76.9293   29.5411 H   0  0  0  0  0  0  0  0  0  0  0  0
   52.8701   75.3939   27.6159 H   0  0  0  0  0  0  0  0  0  0  0  0
   52.2702   76.2686   29.1036 H   0  0  0  0  0  0  0  0  0  0  0  0
  1  2  2  0
  2  3  1  0
  3  4  1  0
  4  5  2  0
  5  6  1  0
  6  7  2  0
  7  8  1  0
  8  9  2  0
  9 10  1  0
  9 11  1  0
 11 12  2  0
 12 13  1  0
 13 14  2  0
 14 15  1  0
 15 16  2  0
 16 17  1  0
 17 18  2  0
 15 19  1  0
 19 20  1  0
 20 21  1  0
 17  2  1  0
 18  4  1  0
 12  6  1  0
 18 13  1  0
 21 14  1  0
  3 22  1  0
  5 23  1  0
  7 24  1  0
  8 25  1  0
 10 26  1  0
 11 27  1  0
 16 28  1  0
 20 29  1  0
 20 30  1  0
M  END
>  <meeko>  (1) 
{"is_sidechain": false}

>  <smiles>  (1) 
O=C1Nc2cc3ccc(O)cc3c3c4c(cc1c23)OCO4

>  <vina_score>  (1) 
-9.449

>  <job_id>  (1) 
c032cf0c055730cb

$$$$
