
     RDKit          3D

 57 62  0  0  0  0  0  0  0  0999 V2000
   50.3850   81.3570   22.0070 N   0  0  0  0  0  0  0  0  0  0  0  0
   51.9440   81.9750   21.9530 S   0  0  0  0  0  0  0  0  0  0  0  0
   52.5780   81.3590   20.8130 O   0  0  0  0  0  0  0  0  0  0  0  0
   51.8100   83.4080   22.0860 O   0  0  0  0  0  0  0  0  0  0  0  0
   52.6470   81.3170   23.4370 C   0  0  0  0  0  0  0  0  0  0  0  0
   52.9350   79.9520   23.5200 C   0  0  0  0  0  0  0  0  0  0  0  0
   53.5120   79.4430   24.6860 C   0  0  0  0  0  0  0  0  0  0  0  0
   53.8210   80.2900   25.7610 C   0  0  0  0  0  0  0  0  0  0  0  0
   54.3760   79.7890   26.9510 N   0  0  0  0  0  0  0  0  0  0  0  0
   55.6170   79.9270   26.9450 N   0  0  0  0  0  0  0  0  0  0  0  0
   56.2200   79.4210   28.1040 C   0  0  0  0  0  0  0  0  0  0  0  0
   55.8490   78.2360   28.6960 C   0  0  0  0  0  0  0  0  0  0  0  0
   54.9470   77.3150   28.3810 O   0  0  0  0  0  0  0  0  0  0  0  0
   56.6300   78.0800   29.8090 N   0  0  0  0  0  0  0  0  0  0  0  0
   57.4790   79.1560   29.9590 C   0  0  0  0  0  0  0  0  0  0  0  0
   58.4250   79.4260   30.9540 C   0  0  0  0  0  0  0  0  0  0  0  0
   59.1450   80.6220   30.8520 C   0  0  0  0  0  0  0  0  0  0  0  0
   58.9380   81.5100   29.7960 C   0  0  0  0  0  0  0  0  0  0  0  0
   59.6700   82.7060   29.7350 N   0  0  0  0  0  0  0  0  0  0  0  0
   60.1730   83.1160   30.8530 C   0  0  0  0  0  0  0  0  0  0  0  0
   60.9470   84.3570   31.0200 C   0  0  0  0  0  0  0  0  0  0  0  0
   60.2340   85.6570   31.2120 C   0  0  0  0  0  0  0  0  0  0  0  0
   59.0280   85.8140   31.2630 O   0  0  0  0  0  0  0  0  0  0  0  0
   61.1970   86.6290   31.3140 N   0  0  0  0  0  0  0  0  0  0  0  0
   62.4260   86.0770   31.2300 C   0  0  0  0  0  0  0  0  0  0  0  0
   63.6120   86.6890   31.2550 C   0  0  0  0  0  0  0  0  0  0  0  0
   64.8270   85.8970   31.1380 C   0  0  0  0  0  0  0  0  0  0  0  0
   64.8150   84.5480   31.0480 C   0  0  0  0  0  0  0  0  0  0  0  0
   65.9610   83.7780   30.9720 N   0  0  0  0  0  0  0  0  0  0  0  0
   65.9340   82.4070   30.9690 C   0  0  0  0  0  0  0  0  0  0  0  0
   64.7820   81.7260   31.0200 C   0  0  0  0  0  0  0  0  0  0  0  0
   63.5300   82.4650   31.0690 C   0  0  0  0  0  0  0  0  0  0  0  0
   63.4930   83.8170   31.0550 C   0  0  0  0  0  0  0  0  0  0  0  0
   62.2670   84.6330   31.0890 C   0  0  0  0  0  0  0  0  0  0  0  0
   57.9750   81.2270   28.8210 C   0  0  0  0  0  0  0  0  0  0  0  0
   57.2360   80.0270   28.8920 C   0  0  0  0  0  0  0  0  0  0  0  0
   53.5260   81.6540   25.6610 C   0  0  0  0  0  0  0  0  0  0  0  0
   52.9480   82.1750   24.4990 C   0  0  0  0  0  0  0  0  0  0  0  0
   49.8930   81.5810   21.1410 H   0  0  0  0  0  0  0  0  0  0  0  0
   49.9090   81.6890   22.8470 H   0  0  0  0  0  0  0  0  0  0  0  0
   52.7095   79.2847   22.6751 H   0  0  0  0  0  0  0  0  0  0  0  0
   53.7263   78.3668   24.7621 H   0  0  0  0  0  0  0  0  0  0  0  0
   55.2010   76.5080   28.8670 H   0  0  0  0  0  0  0  0  0  0  0  0
   56.5710   77.2910   30.4360 H   0  0  0  0  0  0  0  0  0  0  0  0
   58.5963   78.7253   31.7845 H   0  0  0  0  0  0  0  0  0  0  0  0
   59.8912   80.8674   31.6221 H   0  0  0  0  0  0  0  0  0  0  0  0
   60.0109   82.4922   31.7444 H   0  0  0  0  0  0  0  0  0  0  0  0
   60.9830   87.6090   31.4270 H   0  0  0  0  0  0  0  0  0  0  0  0
   63.6703   87.7821   31.3631 H   0  0  0  0  0  0  0  0  0  0  0  0
   65.7959   86.4176   31.1221 H   0  0  0  0  0  0  0  0  0  0  0  0
   66.8580   84.2450   30.9770 H   0  0  0  0  0  0  0  0  0  0  0  0
   66.8829   81.8524   30.9235 H   0  0  0  0  0  0  0  0  0  0  0  0
   64.7825   80.6260   31.0248 H   0  0  0  0  0  0  0  0  0  0  0  0
   62.5835   81.9067   31.1190 H   0  0  0  0  0  0  0  0  0  0  0  0
   57.7945   81.9381   28.0014 H   0  0  0  0  0  0  0  0  0  0  0  0
   53.7509   82.3231   26.5046 H   0  0  0  0  0  0  0  0  0  0  0  0
   52.7320   83.2508   24.4212 H   0  0  0  0  0  0  0  0  0  0  0  0
  1  2  1  0
  2  3  2  0
  2  4  2  0
  2  5  1  0
  5  6  1  0
  6  7  2  0
  7  8  1  0
  8  9  1  0
  9 10  2  3
 10 11  1  0
 11 12  2  0
 12 13  1  0
 12 14  1  0
 14 15  1  0
 15 16  2  0
 16 17  1  0
 17 18  2  0
 18 19  1  0
 19 20  2  3
 20 21  1  0
 21 22  1  0
 22 23  2  0
 22 24  1  0
 24 25  1  0
 25 26  2  0
 26 27  1  0
 27 28  2  0
 28 29  1  0
 29 30  1  0
 30 31  2  0
 31 32  1  0
 32 33  2  0
 33 34  1  0
 18 35  1  0
 35 36  2  0
  8 37  2  0
 37 38  1  0
 38  5  2  0
 36 11  1  0
 36 15  1  0
 34 21  2  0
 34 25  1  0
 33 28  1  0
  1 39  1  0
  1 40  1  0
  6 41  1  0
  7 42  1  0
 13 43  1  0
 14 44  1  0
 16 45  1  0
 17 46  1  0
 20 47  1  0
 24 48  1  0
 26 49  1  0
 27 50  1  0
 29 51  1  0
 30 52  1  0
 31 53  1  0
 32 54  1  0
 35 55  1  0
 37 56  1  0
 38 57  1  0
M  END
>  <meeko>  (1) 
{"is_sidechain": false}

>  <smiles>  (1) 
NS(=O)(=O)c1ccc(N=Nc2c(O)[nH]c3ccc(N=Cc4c(=O)[nH]c5ccc6[nH]cccc6c45)cc23)cc1

>  <vina_score>  (1) 
-8.983

>  <job_id>  (1) 
c0a5a6ae924e52e8

$$$$
