
     RDKit          3D

 39 41  0  0  0  0  0  0  0  0999 V2000
   58.1090   80.9850   32.9530 C   0  0  0  0  0  0  0  0  0  0  0  0
   59.1550   81.4840   31.9930 C   0  0  0  0  0  0  0  0  0  0  0  0
   60.2330   82.2250   32.5110 C   0  0  0  0  0  0  0  0  0  0  0  0
   61.2320   82.7140   31.6740 C   0  0  0  0  0  0  0  0  0  0  0  0
   61.1670   82.4700   30.3080 C   0  0  0  0  0  0  0  0  0  0  0  0
   60.1020   81.7360   29.7780 C   0  0  0  0  0  0  0  0  0  0  0  0
   59.0900   81.2320   30.6030 C   0  0  0  0  0  0  0  0  0  0  0  0
   57.9970   80.4920   30.0940 N   0  0  0  0  0  0  0  0  0  0  0  0
   57.9980   79.5800   29.0530 C   0  0  0  0  0  0  0  0  0  0  0  0
   58.9670   79.1800   28.4200 O   0  0  0  0  0  0  0  0  0  0  0  0
   56.6610   79.0120   28.7250 C   0  0  0  0  0  0  0  0  0  0  0  0
   56.0920   77.9830   29.4880 C   0  0  0  0  0  0  0  0  0  0  0  0
   54.8350   77.4750   29.1470 C   0  0  0  0  0  0  0  0  0  0  0  0
   54.1290   77.9960   28.0530 C   0  0  0  0  0  0  0  0  0  0  0  0
   52.7780   77.4350   27.6770 C   0  0  0  0  0  0  0  0  0  0  0  0
   52.9340   76.2770   26.7350 C   0  0  0  0  0  0  0  0  0  0  0  0
   52.9250   74.8680   27.2720 C   0  0  0  0  0  0  0  0  0  0  0  0
   51.7760   75.3590   26.4360 C   0  0  0  0  0  0  0  0  0  0  0  0
   54.7000   79.0320   27.3030 C   0  0  0  0  0  0  0  0  0  0  0  0
   55.9550   79.5440   27.6410 C   0  0  0  0  0  0  0  0  0  0  0  0
   58.4513   81.1483   33.9856 H   0  0  0  0  0  0  0  0  0  0  0  0
   57.1689   81.5316   32.7876 H   0  0  0  0  0  0  0  0  0  0  0  0
   57.9423   79.9104   32.7876 H   0  0  0  0  0  0  0  0  0  0  0  0
   60.2871   82.4206   33.5921 H   0  0  0  0  0  0  0  0  0  0  0  0
   62.0696   83.2913   32.0926 H   0  0  0  0  0  0  0  0  0  0  0  0
   61.9542   82.8547   29.6429 H   0  0  0  0  0  0  0  0  0  0  0  0
   60.0586   81.5514   28.6945 H   0  0  0  0  0  0  0  0  0  0  0  0
   57.1260   80.5900   30.5960 H   0  0  0  0  0  0  0  0  0  0  0  0
   56.6340   77.5756   30.3542 H   0  0  0  0  0  0  0  0  0  0  0  0
   54.3962   76.6601   29.7415 H   0  0  0  0  0  0  0  0  0  0  0  0
   52.2613   77.0948   28.5866 H   0  0  0  0  0  0  0  0  0  0  0  0
   52.1916   78.2218   27.1799 H   0  0  0  0  0  0  0  0  0  0  0  0
   53.6198   76.8798   26.1215 H   0  0  0  0  0  0  0  0  0  0  0  0
   53.6211   74.1200   26.8646 H   0  0  0  0  0  0  0  0  0  0  0  0
   53.0227   74.4159   28.2700 H   0  0  0  0  0  0  0  0  0  0  0  0
   51.6317   74.9700   25.4173 H   0  0  0  0  0  0  0  0  0  0  0  0
   50.6856   75.4145   26.5697 H   0  0  0  0  0  0  0  0  0  0  0  0
   54.1559   79.4457   26.4411 H   0  0  0  0  0  0  0  0  0  0  0  0
   56.3887   80.3668   27.0538 H   0  0  0  0  0  0  0  0  0  0  0  0
  1  2  1  0
  2  3  2  0
  3  4  1  0
  4  5  2  0
  5  6  1  0
  6  7  2  0
  7  8  1  0
  8  9  1  0
  9 10  2  0
  9 11  1  0
 11 12  1  0
 12 13  2  0
 13 14  1  0
 14 15  1  0
 15 16  1  0
 16 17  1  0
 17 18  1  0
 14 19  2  0
 19 20  1  0
  7  2  1  0
 20 11  2  0
 18 16  1  0
  1 21  1  0
  1 22  1  0
  1 23  1  0
  3 24  1  0
  4 25  1  0
  5 26  1  0
  6 27  1  0
  8 28  1  0
 12 29  1  0
 13 30  1  0
 15 31  1  0
 15 32  1  0
 16 33  1  0
 17 34  1  0
 17 35  1  0
 18 36  1  0
 18 37  1  0
 19 38  1  0
 20 39  1  0
M  END
>  <meeko>  (1) 
{"is_sidechain": false}

>  <smiles>  (1) 
Cc1ccccc1NC(=O)c1ccc(CC2CC2)cc1

>  <vina_score>  (1) 
-7.864

>  <job_id>  (1) 
c0aba4c4cbeb7831

$$$$
