
     RDKit          3D

 37 38  0  0  0  0  0  0  0  0999 V2000
   52.1850   75.3570   26.4110 C   0  0  0  0  0  0  0  0  0  0  0  0
   52.4980   75.7670   27.8430 C   0  0  0  0  0  0  0  0  0  0  0  0
   52.6310   77.2830   28.0200 C   0  0  0  0  0  0  0  0  0  0  0  0
   54.0540   77.7520   28.2060 C   0  0  0  0  0  0  0  0  0  0  0  0
   54.5360   78.8560   27.4870 C   0  0  0  0  0  0  0  0  0  0  0  0
   55.8530   79.2880   27.6510 C   0  0  0  0  0  0  0  0  0  0  0  0
   56.6940   78.6260   28.5480 C   0  0  0  0  0  0  0  0  0  0  0  0
   58.0110   78.9820   28.7310 O   0  0  0  0  0  0  0  0  0  0  0  0
   58.2720   80.0080   29.6090 C   0  0  0  0  0  0  0  0  0  0  0  0
   58.7100   81.2150   29.0570 C   0  0  0  0  0  0  0  0  0  0  0  0
   59.0250   82.2890   29.8900 C   0  0  0  0  0  0  0  0  0  0  0  0
   58.9220   82.1350   31.2760 C   0  0  0  0  0  0  0  0  0  0  0  0
   59.3200   83.5060   32.3300 S   0  0  0  0  0  0  0  0  0  0  0  0
   57.8110   84.2310   32.5200 N   0  0  0  0  0  0  0  0  0  0  0  0
   59.7320   82.9900   33.6130 O   0  0  0  0  0  0  0  0  0  0  0  0
   60.1130   84.4500   31.5770 O   0  0  0  0  0  0  0  0  0  0  0  0
   58.4940   80.9280   31.8350 C   0  0  0  0  0  0  0  0  0  0  0  0
   58.1800   79.8570   30.9970 C   0  0  0  0  0  0  0  0  0  0  0  0
   56.2340   77.5140   29.2490 C   0  0  0  0  0  0  0  0  0  0  0  0
   54.9150   77.0820   29.0850 C   0  0  0  0  0  0  0  0  0  0  0  0
   51.5175   74.4827   26.4175 H   0  0  0  0  0  0  0  0  0  0  0  0
   51.6917   76.1910   25.8903 H   0  0  0  0  0  0  0  0  0  0  0  0
   53.1195   75.1010   25.8903 H   0  0  0  0  0  0  0  0  0  0  0  0
   51.6876   75.4085   28.4946 H   0  0  0  0  0  0  0  0  0  0  0  0
   53.4679   75.3202   28.1070 H   0  0  0  0  0  0  0  0  0  0  0  0
   52.2179   77.7741   27.1266 H   0  0  0  0  0  0  0  0  0  0  0  0
   52.0838   77.5478   28.9368 H   0  0  0  0  0  0  0  0  0  0  0  0
   53.8709   79.3852   26.7887 H   0  0  0  0  0  0  0  0  0  0  0  0
   56.2274   80.1474   27.0754 H   0  0  0  0  0  0  0  0  0  0  0  0
   58.8063   81.3182   27.9661 H   0  0  0  0  0  0  0  0  0  0  0  0
   59.3513   83.2477   29.4606 H   0  0  0  0  0  0  0  0  0  0  0  0
   57.4690   84.2070   33.4800 H   0  0  0  0  0  0  0  0  0  0  0  0
   57.1540   83.7980   31.8690 H   0  0  0  0  0  0  0  0  0  0  0  0
   58.4053   80.8228   32.9264 H   0  0  0  0  0  0  0  0  0  0  0  0
   57.8608   78.8961   31.4269 H   0  0  0  0  0  0  0  0  0  0  0  0
   56.9084   76.9760   29.9314 H   0  0  0  0  0  0  0  0  0  0  0  0
   54.5508   76.2109   29.6493 H   0  0  0  0  0  0  0  0  0  0  0  0
  1  2  1  0
  2  3  1  0
  3  4  1  0
  4  5  1  0
  5  6  2  0
  6  7  1  0
  7  8  1  0
  8  9  1  0
  9 10  1  0
 10 11  2  0
 11 12  1  0
 12 13  1  0
 13 14  1  0
 13 15  2  0
 13 16  2  0
 12 17  2  0
 17 18  1  0
  7 19  2  0
 19 20  1  0
 20  4  2  0
 18  9  2  0
  1 21  1  0
  1 22  1  0
  1 23  1  0
  2 24  1  0
  2 25  1  0
  3 26  1  0
  3 27  1  0
  5 28  1  0
  6 29  1  0
 10 30  1  0
 11 31  1  0
 14 32  1  0
 14 33  1  0
 17 34  1  0
 18 35  1  0
 19 36  1  0
 20 37  1  0
M  END
>  <meeko>  (1) 
{"is_sidechain": false}

>  <smiles>  (1) 
CCCc1ccc(Oc2ccc(S(N)(=O)=O)cc2)cc1

>  <vina_score>  (1) 
-7.873

>  <job_id>  (1) 
c0e3eff8857f7c3a

$$$$
