
     RDKit          3D

 39 40  0  0  0  0  0  0  0  0999 V2000
   52.5600   82.4990   24.0300 C   0  0  0  0  0  0  0  0  0  0  0  0
   52.5510   81.0290   24.4360 C   0  0  0  0  0  0  0  0  0  0  0  0
   52.6330   80.1270   23.2080 C   0  0  0  0  0  0  0  0  0  0  0  0
   53.6540   80.7530   25.3460 N   0  0  0  0  0  0  0  0  0  0  0  0
   53.5740   79.7640   26.3060 C   0  0  0  0  0  0  0  0  0  0  0  0
   52.5610   79.1100   26.5220 O   0  0  0  0  0  0  0  0  0  0  0  0
   54.7970   79.5320   27.1220 C   0  0  0  0  0  0  0  0  0  0  0  0
   55.9150   80.3390   26.8870 C   0  0  0  0  0  0  0  0  0  0  0  0
   57.0810   80.1530   27.6330 C   0  0  0  0  0  0  0  0  0  0  0  0
   57.1440   79.1730   28.6260 C   0  0  0  0  0  0  0  0  0  0  0  0
   58.3430   79.1000   29.2770 O   0  0  0  0  0  0  0  0  0  0  0  0
   59.1870   80.2490   29.2270 C   0  0  0  0  0  0  0  0  0  0  0  0
   58.8310   81.1640   30.3750 C   0  0  0  0  0  0  0  0  0  0  0  0
   58.8680   82.5590   30.2150 C   0  0  0  0  0  0  0  0  0  0  0  0
   58.5600   83.4100   31.2800 C   0  0  0  0  0  0  0  0  0  0  0  0
   58.2150   82.8750   32.5180 C   0  0  0  0  0  0  0  0  0  0  0  0
   58.1810   81.4960   32.6820 C   0  0  0  0  0  0  0  0  0  0  0  0
   57.8550   80.9810   33.8740 F   0  0  0  0  0  0  0  0  0  0  0  0
   58.4860   80.6380   31.6280 C   0  0  0  0  0  0  0  0  0  0  0  0
   56.0220   78.3800   28.8740 C   0  0  0  0  0  0  0  0  0  0  0  0
   54.8500   78.5590   28.1280 C   0  0  0  0  0  0  0  0  0  0  0  0
   52.5639   83.1285   24.9321 H   0  0  0  0  0  0  0  0  0  0  0  0
   53.4594   82.7089   23.4326 H   0  0  0  0  0  0  0  0  0  0  0  0
   51.6632   82.7199   23.4326 H   0  0  0  0  0  0  0  0  0  0  0  0
   51.6037   80.8165   24.9533 H   0  0  0  0  0  0  0  0  0  0  0  0
   52.7283   79.0790   23.5285 H   0  0  0  0  0  0  0  0  0  0  0  0
   51.7205   80.2445   22.6051 H   0  0  0  0  0  0  0  0  0  0  0  0
   53.5094   80.4072   22.6051 H   0  0  0  0  0  0  0  0  0  0  0  0
   54.5050   81.2870   25.2430 H   0  0  0  0  0  0  0  0  0  0  0  0
   55.8759   81.1207   26.1141 H   0  0  0  0  0  0  0  0  0  0  0  0
   57.9593   80.7853   27.4363 H   0  0  0  0  0  0  0  0  0  0  0  0
   60.2389   79.9392   29.3135 H   0  0  0  0  0  0  0  0  0  0  0  0
   59.0459   80.7754   28.2715 H   0  0  0  0  0  0  0  0  0  0  0  0
   59.1427   82.9869   29.2396 H   0  0  0  0  0  0  0  0  0  0  0  0
   58.5901   84.5007   31.1402 H   0  0  0  0  0  0  0  0  0  0  0  0
   57.9711   83.5393   33.3602 H   0  0  0  0  0  0  0  0  0  0  0  0
   58.4562   79.5488   31.7785 H   0  0  0  0  0  0  0  0  0  0  0  0
   56.0585   77.6106   29.6593 H   0  0  0  0  0  0  0  0  0  0  0  0
   53.9686   77.9335   28.3329 H   0  0  0  0  0  0  0  0  0  0  0  0
  1  2  1  0
  2  3  1  0
  2  4  1  0
  4  5  1  0
  5  6  2  0
  5  7  1  0
  7  8  1  0
  8  9  2  0
  9 10  1  0
 10 11  1  0
 11 12  1  0
 12 13  1  0
 13 14  2  0
 14 15  1  0
 15 16  2  0
 16 17  1  0
 17 18  1  0
 17 19  2  0
 10 20  2  0
 20 21  1  0
 21  7  2  0
 19 13  1  0
  1 22  1  0
  1 23  1  0
  1 24  1  0
  2 25  1  0
  3 26  1  0
  3 27  1  0
  3 28  1  0
  4 29  1  0
  8 30  1  0
  9 31  1  0
 12 32  1  0
 12 33  1  0
 14 34  1  0
 15 35  1  0
 16 36  1  0
 19 37  1  0
 20 38  1  0
 21 39  1  0
M  END
>  <meeko>  (1) 
{"is_sidechain": false}

>  <smiles>  (1) 
CC(C)NC(=O)c1ccc(OCc2cccc(F)c2)cc1

>  <vina_score>  (1) 
-7.810

>  <job_id>  (1) 
c0f5ec52e9539965

$$$$
