
     RDKit          3D

 38 39  0  0  0  0  0  0  0  0999 V2000
   52.1760   75.3560   26.3170 C   0  0  0  0  0  0  0  0  0  0  0  0
   52.4870   75.7220   27.7620 C   0  0  0  0  0  0  0  0  0  0  0  0
   52.6050   77.2310   27.9900 C   0  0  0  0  0  0  0  0  0  0  0  0
   54.0200   77.7070   28.1990 C   0  0  0  0  0  0  0  0  0  0  0  0
   54.5320   78.7760   27.4570 C   0  0  0  0  0  0  0  0  0  0  0  0
   55.8440   79.2170   27.6600 C   0  0  0  0  0  0  0  0  0  0  0  0
   56.6750   78.6090   28.6100 C   0  0  0  0  0  0  0  0  0  0  0  0
   57.9980   79.0650   28.7470 N   0  0  0  0  0  0  0  0  0  0  0  0
   58.5890   79.9900   29.6240 C   0  0  0  0  0  0  0  0  0  0  0  0
   58.3200   79.8880   30.9990 C   0  0  0  0  0  0  0  0  0  0  0  0
   58.9130   80.7580   31.9190 C   0  0  0  0  0  0  0  0  0  0  0  0
   59.7830   81.7490   31.4640 C   0  0  0  0  0  0  0  0  0  0  0  0
   60.5610   82.8340   32.6210 S   0  0  0  0  0  0  0  0  0  0  0  0
   59.6830   82.5370   34.0220 N   0  0  0  0  0  0  0  0  0  0  0  0
   60.2780   84.2030   32.2580 O   0  0  0  0  0  0  0  0  0  0  0  0
   61.9010   82.3660   32.8890 O   0  0  0  0  0  0  0  0  0  0  0  0
   60.0780   81.8600   30.1050 C   0  0  0  0  0  0  0  0  0  0  0  0
   59.4810   80.9810   29.1950 C   0  0  0  0  0  0  0  0  0  0  0  0
   56.1580   77.5350   29.3410 C   0  0  0  0  0  0  0  0  0  0  0  0
   54.8460   77.0900   29.1440 C   0  0  0  0  0  0  0  0  0  0  0  0
   51.4638   74.5179   26.2962 H   0  0  0  0  0  0  0  0  0  0  0  0
   51.7353   76.2244   25.8055 H   0  0  0  0  0  0  0  0  0  0  0  0
   53.1042   75.0613   25.8055 H   0  0  0  0  0  0  0  0  0  0  0  0
   51.6811   75.3337   28.4022 H   0  0  0  0  0  0  0  0  0  0  0  0
   53.4621   75.2769   28.0093 H   0  0  0  0  0  0  0  0  0  0  0  0
   52.1917   77.7477   27.1112 H   0  0  0  0  0  0  0  0  0  0  0  0
   52.0511   77.4594   28.9125 H   0  0  0  0  0  0  0  0  0  0  0  0
   53.8984   79.2738   26.7082 H   0  0  0  0  0  0  0  0  0  0  0  0
   56.2301   80.0563   27.0629 H   0  0  0  0  0  0  0  0  0  0  0  0
   58.6410   78.6590   28.0760 H   0  0  0  0  0  0  0  0  0  0  0  0
   57.6306   79.1098   31.3583 H   0  0  0  0  0  0  0  0  0  0  0  0
   58.6953   80.6618   32.9929 H   0  0  0  0  0  0  0  0  0  0  0  0
   59.3510   83.4180   34.4140 H   0  0  0  0  0  0  0  0  0  0  0  0
   60.2420   81.9810   34.6690 H   0  0  0  0  0  0  0  0  0  0  0  0
   60.7754   82.6336   29.7513 H   0  0  0  0  0  0  0  0  0  0  0  0
   59.7162   81.0697   28.1241 H   0  0  0  0  0  0  0  0  0  0  0  0
   56.7937   77.0311   30.0839 H   0  0  0  0  0  0  0  0  0  0  0  0
   54.4610   76.2477   29.7375 H   0  0  0  0  0  0  0  0  0  0  0  0
  1  2  1  0
  2  3  1  0
  3  4  1  0
  4  5  1  0
  5  6  2  0
  6  7  1  0
  7  8  1  0
  8  9  1  0
  9 10  1  0
 10 11  2  0
 11 12  1  0
 12 13  1  0
 13 14  1  0
 13 15  2  0
 13 16  2  0
 12 17  2  0
 17 18  1  0
  7 19  2  0
 19 20  1  0
 20  4  2  0
 18  9  2  0
  1 21  1  0
  1 22  1  0
  1 23  1  0
  2 24  1  0
  2 25  1  0
  3 26  1  0
  3 27  1  0
  5 28  1  0
  6 29  1  0
  8 30  1  0
 10 31  1  0
 11 32  1  0
 14 33  1  0
 14 34  1  0
 17 35  1  0
 18 36  1  0
 19 37  1  0
 20 38  1  0
M  END
>  <meeko>  (1) 
{"is_sidechain": false}

>  <smiles>  (1) 
CCCc1ccc(Nc2ccc(S(N)(=O)=O)cc2)cc1

>  <vina_score>  (1) 
-8.131

>  <job_id>  (1) 
c11e3793f4af170b

$$$$
