
     RDKit          3D

 42 45  0  0  0  0  0  0  0  0999 V2000
   53.1790   81.0150   22.4860 F   0  0  0  0  0  0  0  0  0  0  0  0
   53.1650   80.5030   23.7220 C   0  0  0  0  0  0  0  0  0  0  0  0
   53.3100   79.1310   23.8950 C   0  0  0  0  0  0  0  0  0  0  0  0
   53.3010   78.5900   25.1850 C   0  0  0  0  0  0  0  0  0  0  0  0
   53.1320   79.4180   26.3070 C   0  0  0  0  0  0  0  0  0  0  0  0
   53.1330   78.8400   27.5980 N   0  0  0  0  0  0  0  0  0  0  0  0
   54.2250   78.1660   28.2020 C   0  0  0  0  0  0  0  0  0  0  0  0
   55.4620   78.7850   28.1710 C   0  0  0  0  0  0  0  0  0  0  0  0
   56.5290   78.1180   28.7350 C   0  0  0  0  0  0  0  0  0  0  0  0
   57.8210   78.6530   28.7800 N   0  0  0  0  0  0  0  0  0  0  0  0
   58.2830   79.7730   29.4940 C   0  0  0  0  0  0  0  0  0  0  0  0
   58.9440   80.7720   28.7800 C   0  0  0  0  0  0  0  0  0  0  0  0
   59.4380   81.8890   29.4480 C   0  0  0  0  0  0  0  0  0  0  0  0
   59.2670   81.9990   30.8260 C   0  0  0  0  0  0  0  0  0  0  0  0
   58.6170   80.9520   31.4780 C   0  0  0  0  0  0  0  0  0  0  0  0
   58.1350   79.8570   30.8340 N   0  0  0  0  0  0  0  0  0  0  0  0
   58.3730   81.0240   32.9620 C   0  0  0  0  0  0  0  0  0  0  0  0
   59.3000   82.0310   33.6440 C   0  0  0  0  0  0  0  0  0  0  0  0
   59.2820   83.3140   32.9390 N   0  0  0  0  0  0  0  0  0  0  0  0
   59.8360   83.1630   31.5900 C   0  0  0  0  0  0  0  0  0  0  0  0
   56.3780   76.9240   29.3330 N   0  0  0  0  0  0  0  0  0  0  0  0
   55.1430   76.4090   29.3200 C   0  0  0  0  0  0  0  0  0  0  0  0
   54.0570   76.9630   28.7700 N   0  0  0  0  0  0  0  0  0  0  0  0
   53.0110   80.8040   26.0930 C   0  0  0  0  0  0  0  0  0  0  0  0
   52.9360   81.6530   27.1300 F   0  0  0  0  0  0  0  0  0  0  0  0
   53.0210   81.3480   24.8120 C   0  0  0  0  0  0  0  0  0  0  0  0
   53.4313   78.4738   23.0213 H   0  0  0  0  0  0  0  0  0  0  0  0
   53.4275   77.5059   25.3220 H   0  0  0  0  0  0  0  0  0  0  0  0
   52.6940   79.4320   28.2950 H   0  0  0  0  0  0  0  0  0  0  0  0
   55.5901   79.7763   27.7117 H   0  0  0  0  0  0  0  0  0  0  0  0
   58.2050   78.6020   27.8450 H   0  0  0  0  0  0  0  0  0  0  0  0
   59.0747   80.6776   27.6919 H   0  0  0  0  0  0  0  0  0  0  0  0
   59.9605   82.6804   28.8907 H   0  0  0  0  0  0  0  0  0  0  0  0
   57.3298   81.3260   33.1367 H   0  0  0  0  0  0  0  0  0  0  0  0
   58.5751   80.0308   33.3893 H   0  0  0  0  0  0  0  0  0  0  0  0
   58.9657   82.1844   34.6807 H   0  0  0  0  0  0  0  0  0  0  0  0
   60.3256   81.6338   33.6274 H   0  0  0  0  0  0  0  0  0  0  0  0
   59.8390   83.9960   33.4510 H   0  0  0  0  0  0  0  0  0  0  0  0
   59.6281   84.0835   31.0248 H   0  0  0  0  0  0  0  0  0  0  0  0
   60.9134   82.9738   31.7058 H   0  0  0  0  0  0  0  0  0  0  0  0
   55.0076   75.4336   29.8101 H   0  0  0  0  0  0  0  0  0  0  0  0
   52.9161   82.4332   24.6662 H   0  0  0  0  0  0  0  0  0  0  0  0
  1  2  1  0
  2  3  1  0
  3  4  2  0
  4  5  1  0
  5  6  1  0
  6  7  1  0
  7  8  1  0
  8  9  2  0
  9 10  1  0
 10 11  1  0
 11 12  1  0
 12 13  2  0
 13 14  1  0
 14 15  2  0
 15 16  1  0
 15 17  1  0
 17 18  1  0
 18 19  1  0
 19 20  1  0
  9 21  1  0
 21 22  2  0
 22 23  1  0
  5 24  2  0
 24 25  1  0
 24 26  1  0
 26  2  2  0
 23  7  2  0
 16 11  2  0
 20 14  1  0
  3 27  1  0
  4 28  1  0
  6 29  1  0
  8 30  1  0
 10 31  1  0
 12 32  1  0
 13 33  1  0
 17 34  1  0
 17 35  1  0
 18 36  1  0
 18 37  1  0
 19 38  1  0
 20 39  1  0
 20 40  1  0
 22 41  1  0
 26 42  1  0
M  END
>  <meeko>  (1) 
{"is_sidechain": false}

>  <smiles>  (1) 
Fc1ccc(Nc2cc(Nc3ccc4c(n3)CCNC4)ncn2)c(F)c1

>  <vina_score>  (1) 
-9.177

>  <job_id>  (1) 
c15df6287318a3cc

$$$$
