
     RDKit          3D

 54 58  0  0  0  0  0  0  0  0999 V2000
   57.8100   80.6000   32.1180 O   0  0  0  0  0  0  0  0  0  0  0  0
   58.3600   80.4150   31.0320 C   0  0  0  0  0  0  0  0  0  0  0  0
   58.1360   79.1310   30.2430 C   0  0  0  0  0  0  0  0  0  0  0  0
   57.1840   79.2640   29.0770 C   0  0  0  0  0  0  0  0  0  0  0  0
   55.9750   78.5610   29.0570 C   0  0  0  0  0  0  0  0  0  0  0  0
   55.0720   78.7330   28.0040 C   0  0  0  0  0  0  0  0  0  0  0  0
   55.3520   79.6080   26.9410 C   0  0  0  0  0  0  0  0  0  0  0  0
   54.3940   79.7950   25.8380 C   0  0  0  0  0  0  0  0  0  0  0  0
   53.7830   81.0390   25.6090 C   0  0  0  0  0  0  0  0  0  0  0  0
   52.8750   81.2170   24.5620 C   0  0  0  0  0  0  0  0  0  0  0  0
   52.5590   80.1510   23.7240 C   0  0  0  0  0  0  0  0  0  0  0  0
   53.1520   78.9080   23.9320 C   0  0  0  0  0  0  0  0  0  0  0  0
   54.0600   78.7320   24.9800 C   0  0  0  0  0  0  0  0  0  0  0  0
   56.5730   80.2990   26.9670 C   0  0  0  0  0  0  0  0  0  0  0  0
   57.4790   80.1320   28.0190 C   0  0  0  0  0  0  0  0  0  0  0  0
   59.1620   81.3530   30.4060 N   0  0  0  0  0  0  0  0  0  0  0  0
   59.4330   82.5870   30.9650 C   0  0  0  0  0  0  0  0  0  0  0  0
   58.5060   83.3710   31.6050 N   0  0  0  0  0  0  0  0  0  0  0  0
   58.9840   84.5470   32.0630 N   0  0  0  0  0  0  0  0  0  0  0  0
   60.2800   84.5470   31.7090 C   0  0  0  0  0  0  0  0  0  0  0  0
   61.2700   85.5210   31.9160 C   0  0  0  0  0  0  0  0  0  0  0  0
   62.5380   85.1640   31.4020 C   0  0  0  0  0  0  0  0  0  0  0  0
   62.8040   83.9290   30.7290 C   0  0  0  0  0  0  0  0  0  0  0  0
   64.1600   83.7170   30.3150 N   0  0  0  0  0  0  0  0  0  0  0  0
   64.9700   84.9010   29.9260 C   0  0  0  0  0  0  0  0  0  0  0  0
   66.3530   84.7440   30.5640 C   0  0  0  0  0  0  0  0  0  0  0  0
   66.6320   83.2530   30.6450 C   0  0  0  0  0  0  0  0  0  0  0  0
   65.0840   82.5790   31.2040 S   0  0  0  0  0  0  0  0  0  0  0  0
   64.8830   81.2620   30.6450 O   0  0  0  0  0  0  0  0  0  0  0  0
   64.9710   82.8530   32.6200 O   0  0  0  0  0  0  0  0  0  0  0  0
   61.8310   82.9310   30.5150 C   0  0  0  0  0  0  0  0  0  0  0  0
   60.5930   83.3140   31.0240 C   0  0  0  0  0  0  0  0  0  0  0  0
   59.1083   78.7935   29.8547 H   0  0  0  0  0  0  0  0  0  0  0  0
   57.6758   78.4147   30.9396 H   0  0  0  0  0  0  0  0  0  0  0  0
   55.7330   77.8676   29.8760 H   0  0  0  0  0  0  0  0  0  0  0  0
   54.1251   78.1732   28.0076 H   0  0  0  0  0  0  0  0  0  0  0  0
   54.0237   81.8881   26.2656 H   0  0  0  0  0  0  0  0  0  0  0  0
   52.4094   82.2003   24.3997 H   0  0  0  0  0  0  0  0  0  0  0  0
   51.8433   80.2900   22.9003 H   0  0  0  0  0  0  0  0  0  0  0  0
   52.9055   78.0641   23.2709 H   0  0  0  0  0  0  0  0  0  0  0  0
   54.5210   77.7456   25.1362 H   0  0  0  0  0  0  0  0  0  0  0  0
   56.8222   80.9851   26.1441 H   0  0  0  0  0  0  0  0  0  0  0  0
   58.4293   80.6860   28.0152 H   0  0  0  0  0  0  0  0  0  0  0  0
   59.5940   81.1340   29.5140 H   0  0  0  0  0  0  0  0  0  0  0  0
   57.5260   83.1400   31.7500 H   0  0  0  0  0  0  0  0  0  0  0  0
   61.0770   86.4739   32.4306 H   0  0  0  0  0  0  0  0  0  0  0  0
   63.3673   85.8759   31.5264 H   0  0  0  0  0  0  0  0  0  0  0  0
   65.0649   84.9475   28.8311 H   0  0  0  0  0  0  0  0  0  0  0  0
   64.4887   85.8287   30.2692 H   0  0  0  0  0  0  0  0  0  0  0  0
   67.1147   85.2387   29.9434 H   0  0  0  0  0  0  0  0  0  0  0  0
   66.3822   85.2059   31.5619 H   0  0  0  0  0  0  0  0  0  0  0  0
   66.9051   82.8488   29.6591 H   0  0  0  0  0  0  0  0  0  0  0  0
   67.4740   83.0074   31.3088 H   0  0  0  0  0  0  0  0  0  0  0  0
   62.0252   81.9729   30.0107 H   0  0  0  0  0  0  0  0  0  0  0  0
  1  2  2  0
  2  3  1  0
  3  4  1  0
  4  5  1  0
  5  6  2  0
  6  7  1  0
  7  8  1  0
  8  9  2  0
  9 10  1  0
 10 11  2  0
 11 12  1  0
 12 13  2  0
  7 14  2  0
 14 15  1  0
  2 16  1  0
 16 17  1  0
 17 18  1  0
 18 19  1  0
 19 20  2  0
 20 21  1  0
 21 22  2  0
 22 23  1  0
 23 24  1  0
 24 25  1  0
 25 26  1  0
 26 27  1  0
 27 28  1  0
 28 29  2  0
 28 30  2  0
 23 31  2  0
 31 32  1  0
 15  4  2  0
 32 17  2  0
 13  8  1  0
 32 20  1  0
 28 24  1  0
  3 33  1  0
  3 34  1  0
  5 35  1  0
  6 36  1  0
  9 37  1  0
 10 38  1  0
 11 39  1  0
 12 40  1  0
 13 41  1  0
 14 42  1  0
 15 43  1  0
 16 44  1  0
 18 45  1  0
 21 46  1  0
 22 47  1  0
 25 48  1  0
 25 49  1  0
 26 50  1  0
 26 51  1  0
 27 52  1  0
 27 53  1  0
 31 54  1  0
M  END
>  <meeko>  (1) 
{"is_sidechain": false}

>  <smiles>  (1) 
O=C(Cc1ccc(-c2ccccc2)cc1)Nc1[nH]nc2ccc(N3CCCS3(=O)=O)cc12

>  <vina_score>  (1) 
-8.914

>  <job_id>  (1) 
c233945c1dda7ace

$$$$
