
     RDKit          3D

 49 51  0  0  0  0  0  0  0  0999 V2000
   60.4350   84.0890   34.3680 C   0  0  0  0  0  0  0  0  0  0  0  0
   60.9940   82.7090   34.7100 C   0  0  0  0  0  0  0  0  0  0  0  0
   62.4360   82.8310   35.1990 C   0  0  0  0  0  0  0  0  0  0  0  0
   60.9170   81.7680   33.5040 C   0  0  0  0  0  0  0  0  0  0  0  0
   61.5080   80.6930   33.4940 O   0  0  0  0  0  0  0  0  0  0  0  0
   60.1010   82.2650   32.5100 N   0  0  0  0  0  0  0  0  0  0  0  0
   59.7860   81.6600   31.3210 C   0  0  0  0  0  0  0  0  0  0  0  0
   60.2720   82.1110   30.1890 N   0  0  0  0  0  0  0  0  0  0  0  0
   59.7270   81.3850   29.1450 C   0  0  0  0  0  0  0  0  0  0  0  0
   58.8600   80.3710   29.5060 C   0  0  0  0  0  0  0  0  0  0  0  0
   57.9860   79.3170   28.4110 S   0  0  0  0  0  0  0  0  0  0  0  0
   56.6960   78.6160   29.4910 C   0  0  0  0  0  0  0  0  0  0  0  0
   55.4370   78.2260   28.7560 C   0  0  0  0  0  0  0  0  0  0  0  0
   54.9170   79.1070   27.7850 C   0  0  0  0  0  0  0  0  0  0  0  0
   53.7570   78.8220   27.0470 C   0  0  0  0  0  0  0  0  0  0  0  0
   53.2660   79.6540   26.0300 N   0  0  0  0  0  0  0  0  0  0  0  0
   53.6720   79.3650   24.6350 C   0  0  0  0  0  0  0  0  0  0  0  0
   52.8530   80.2280   23.6640 C   0  0  0  0  0  0  0  0  0  0  0  0
   52.9990   81.6280   23.9540 O   0  0  0  0  0  0  0  0  0  0  0  0
   52.5510   81.9020   25.2920 C   0  0  0  0  0  0  0  0  0  0  0  0
   53.3460   81.1010   26.3380 C   0  0  0  0  0  0  0  0  0  0  0  0
   53.1030   77.6140   27.3330 C   0  0  0  0  0  0  0  0  0  0  0  0
   53.5880   76.7320   28.3030 C   0  0  0  0  0  0  0  0  0  0  0  0
   54.7540   77.0320   28.9960 C   0  0  0  0  0  0  0  0  0  0  0  0
   55.1850   76.1000   29.8950 O   0  0  0  0  0  0  0  0  0  0  0  0
   58.8030   80.2770   31.2140 S   0  0  0  0  0  0  0  0  0  0  0  0
   60.2137   84.6354   35.2967 H   0  0  0  0  0  0  0  0  0  0  0  0
   61.1769   84.6498   33.7805 H   0  0  0  0  0  0  0  0  0  0  0  0
   59.5120   83.9754   33.7805 H   0  0  0  0  0  0  0  0  0  0  0  0
   60.3794   82.2795   35.5148 H   0  0  0  0  0  0  0  0  0  0  0  0
   62.4513   82.8323   36.2989 H   0  0  0  0  0  0  0  0  0  0  0  0
   63.0233   81.9793   34.8251 H   0  0  0  0  0  0  0  0  0  0  0  0
   62.8718   83.7692   34.8251 H   0  0  0  0  0  0  0  0  0  0  0  0
   59.5550   83.0990   32.6790 H   0  0  0  0  0  0  0  0  0  0  0  0
   59.9685   81.6012   28.0938 H   0  0  0  0  0  0  0  0  0  0  0  0
   57.1032   77.7200   29.9823 H   0  0  0  0  0  0  0  0  0  0  0  0
   56.4186   79.3995   30.2115 H   0  0  0  0  0  0  0  0  0  0  0  0
   55.4414   80.0557   27.5983 H   0  0  0  0  0  0  0  0  0  0  0  0
   54.7413   79.5917   24.5117 H   0  0  0  0  0  0  0  0  0  0  0  0
   53.4902   78.3022   24.4172 H   0  0  0  0  0  0  0  0  0  0  0  0
   53.1988   80.0374   22.6373 H   0  0  0  0  0  0  0  0  0  0  0  0
   51.7917   79.9608   23.7750 H   0  0  0  0  0  0  0  0  0  0  0  0
   52.6758   82.9757   25.4961 H   0  0  0  0  0  0  0  0  0  0  0  0
   51.4945   81.6048   25.3656 H   0  0  0  0  0  0  0  0  0  0  0  0
   54.3984   81.4205   26.3198 H   0  0  0  0  0  0  0  0  0  0  0  0
   52.9200   81.2838   27.3356 H   0  0  0  0  0  0  0  0  0  0  0  0
   52.1874   77.3550   26.7811 H   0  0  0  0  0  0  0  0  0  0  0  0
   53.0458   75.7994   28.5178 H   0  0  0  0  0  0  0  0  0  0  0  0
   55.6140   76.5600   30.6370 H   0  0  0  0  0  0  0  0  0  0  0  0
  1  2  1  0
  2  3  1  0
  2  4  1  0
  4  5  2  0
  4  6  1  0
  6  7  1  0
  7  8  2  0
  8  9  1  0
  9 10  2  0
 10 11  1  0
 11 12  1  0
 12 13  1  0
 13 14  1  0
 14 15  2  0
 15 16  1  0
 16 17  1  0
 17 18  1  0
 18 19  1  0
 19 20  1  0
 20 21  1  0
 15 22  1  0
 22 23  2  0
 23 24  1  0
 24 25  1  0
 10 26  1  0
 26  7  1  0
 24 13  2  0
 21 16  1  0
  1 27  1  0
  1 28  1  0
  1 29  1  0
  2 30  1  0
  3 31  1  0
  3 32  1  0
  3 33  1  0
  6 34  1  0
  9 35  1  0
 12 36  1  0
 12 37  1  0
 14 38  1  0
 17 39  1  0
 17 40  1  0
 18 41  1  0
 18 42  1  0
 20 43  1  0
 20 44  1  0
 21 45  1  0
 21 46  1  0
 22 47  1  0
 23 48  1  0
 25 49  1  0
M  END
>  <meeko>  (1) 
{"is_sidechain": false}

>  <smiles>  (1) 
CC(C)C(=O)Nc1ncc(SCc2cc(N3CCOCC3)ccc2O)s1

>  <vina_score>  (1) 
-7.747

>  <job_id>  (1) 
c27dc043dd02bf49

$$$$
