
     RDKit          3D

 41 42  0  0  0  0  0  0  0  0999 V2000
   51.7950   75.6850   26.5320 C   0  0  0  0  0  0  0  0  0  0  0  0
   52.8340   76.7720   26.6400 C   0  0  0  0  0  0  0  0  0  0  0  0
   52.9610   77.6070   25.7500 O   0  0  0  0  0  0  0  0  0  0  0  0
   53.5840   76.6680   27.7970 N   0  0  0  0  0  0  0  0  0  0  0  0
   54.6340   77.5080   28.2190 C   0  0  0  0  0  0  0  0  0  0  0  0
   55.0490   78.6460   27.5310 C   0  0  0  0  0  0  0  0  0  0  0  0
   56.1020   79.4310   28.0210 C   0  0  0  0  0  0  0  0  0  0  0  0
   56.7670   79.0970   29.2100 C   0  0  0  0  0  0  0  0  0  0  0  0
   57.8720   79.9250   29.7220 C   0  0  0  0  0  0  0  0  0  0  0  0
   58.6220   80.7410   28.8570 C   0  0  0  0  0  0  0  0  0  0  0  0
   59.6700   81.5320   29.3360 C   0  0  0  0  0  0  0  0  0  0  0  0
   59.9920   81.4950   30.6940 C   0  0  0  0  0  0  0  0  0  0  0  0
   61.3050   82.5220   31.3160 S   0  0  0  0  0  0  0  0  0  0  0  0
   62.5240   82.1070   30.6450 O   0  0  0  0  0  0  0  0  0  0  0  0
   60.8570   83.8990   31.2050 O   0  0  0  0  0  0  0  0  0  0  0  0
   61.4600   82.1230   33.0590 C   0  0  0  0  0  0  0  0  0  0  0  0
   62.9050   81.8560   33.4670 C   0  0  0  0  0  0  0  0  0  0  0  0
   60.8260   83.1800   33.9560 C   0  0  0  0  0  0  0  0  0  0  0  0
   59.2480   80.7140   31.5780 C   0  0  0  0  0  0  0  0  0  0  0  0
   58.2010   79.9280   31.0880 C   0  0  0  0  0  0  0  0  0  0  0  0
   56.3430   77.9500   29.8950 C   0  0  0  0  0  0  0  0  0  0  0  0
   55.2900   77.1670   29.4070 C   0  0  0  0  0  0  0  0  0  0  0  0
   51.4910   75.3669   27.5402 H   0  0  0  0  0  0  0  0  0  0  0  0
   50.9187   76.0681   25.9885 H   0  0  0  0  0  0  0  0  0  0  0  0
   52.2172   74.8269   25.9885 H   0  0  0  0  0  0  0  0  0  0  0  0
   53.3610   75.8970   28.4140 H   0  0  0  0  0  0  0  0  0  0  0  0
   54.5461   78.9311   26.5952 H   0  0  0  0  0  0  0  0  0  0  0  0
   56.4128   80.3261   27.4623 H   0  0  0  0  0  0  0  0  0  0  0  0
   58.3797   80.7572   27.7841 H   0  0  0  0  0  0  0  0  0  0  0  0
   60.2362   82.1781   28.6490 H   0  0  0  0  0  0  0  0  0  0  0  0
   60.8982   81.1885   33.2043 H   0  0  0  0  0  0  0  0  0  0  0  0
   62.9796   81.8422   34.5644 H   0  0  0  0  0  0  0  0  0  0  0  0
   63.2256   80.8834   33.0655 H   0  0  0  0  0  0  0  0  0  0  0  0
   63.5520   82.6498   33.0655 H   0  0  0  0  0  0  0  0  0  0  0  0
   60.9874   82.9109   35.0103 H   0  0  0  0  0  0  0  0  0  0  0  0
   61.2868   84.1579   33.7525 H   0  0  0  0  0  0  0  0  0  0  0  0
   59.7463   83.2339   33.7525 H   0  0  0  0  0  0  0  0  0  0  0  0
   59.4832   80.7165   32.6525 H   0  0  0  0  0  0  0  0  0  0  0  0
   57.6246   79.3009   31.7840 H   0  0  0  0  0  0  0  0  0  0  0  0
   56.8451   77.6607   30.8300 H   0  0  0  0  0  0  0  0  0  0  0  0
   54.9745   76.2727   29.9644 H   0  0  0  0  0  0  0  0  0  0  0  0
  1  2  1  0
  2  3  2  0
  2  4  1  0
  4  5  1  0
  5  6  1  0
  6  7  2  0
  7  8  1  0
  8  9  1  0
  9 10  1  0
 10 11  2  0
 11 12  1  0
 12 13  1  0
 13 14  2  0
 13 15  2  0
 13 16  1  0
 16 17  1  0
 16 18  1  0
 12 19  2  0
 19 20  1  0
  8 21  2  0
 21 22  1  0
 22  5  2  0
 20  9  2  0
  1 23  1  0
  1 24  1  0
  1 25  1  0
  4 26  1  0
  6 27  1  0
  7 28  1  0
 10 29  1  0
 11 30  1  0
 16 31  1  0
 17 32  1  0
 17 33  1  0
 17 34  1  0
 18 35  1  0
 18 36  1  0
 18 37  1  0
 19 38  1  0
 20 39  1  0
 21 40  1  0
 22 41  1  0
M  END
>  <meeko>  (1) 
{"is_sidechain": false}

>  <smiles>  (1) 
CC(=O)Nc1ccc(-c2ccc(S(=O)(=O)C(C)C)cc2)cc1

>  <vina_score>  (1) 
-7.455

>  <job_id>  (1) 
c2a01e058befa24a

$$$$
