
     RDKit          3D

 54 56  0  0  0  0  0  0  0  0999 V2000
   64.5400   81.7320   31.0200 C   0  0  0  0  0  0  0  0  0  0  0  0
   63.6250   82.7140   31.0870 C   0  0  0  0  0  0  0  0  0  0  0  0
   63.7440   83.9690   30.2700 C   0  0  0  0  0  0  0  0  0  0  0  0
   62.3870   82.6290   31.9340 C   0  0  0  0  0  0  0  0  0  0  0  0
   62.2260   81.6890   32.7030 O   0  0  0  0  0  0  0  0  0  0  0  0
   61.3500   83.6810   31.7370 C   0  0  0  0  0  0  0  0  0  0  0  0
   60.1590   83.5050   31.1440 C   0  0  0  0  0  0  0  0  0  0  0  0
   59.5880   82.2490   30.6490 C   0  0  0  0  0  0  0  0  0  0  0  0
   59.6750   81.9420   29.2900 C   0  0  0  0  0  0  0  0  0  0  0  0
   59.0970   80.7680   28.7930 C   0  0  0  0  0  0  0  0  0  0  0  0
   58.4180   79.8700   29.6330 C   0  0  0  0  0  0  0  0  0  0  0  0
   57.8370   78.7320   29.0610 N   0  0  0  0  0  0  0  0  0  0  0  0
   56.5280   78.2930   28.9010 C   0  0  0  0  0  0  0  0  0  0  0  0
   55.9480   77.4430   29.7640 N   0  0  0  0  0  0  0  0  0  0  0  0
   54.6750   77.0740   29.5130 C   0  0  0  0  0  0  0  0  0  0  0  0
   53.9550   77.5290   28.4420 C   0  0  0  0  0  0  0  0  0  0  0  0
   52.6940   77.1310   28.2390 F   0  0  0  0  0  0  0  0  0  0  0  0
   54.6110   78.4150   27.6160 C   0  0  0  0  0  0  0  0  0  0  0  0
   53.9920   78.9740   26.4170 C   0  0  0  0  0  0  0  0  0  0  0  0
   53.3340   78.3130   25.3980 C   0  0  0  0  0  0  0  0  0  0  0  0
   52.9350   79.1690   24.4170 N   0  0  0  0  0  0  0  0  0  0  0  0
   53.3260   80.3670   24.8000 C   0  0  0  0  0  0  0  0  0  0  0  0
   53.1110   81.5900   23.9850 C   0  0  0  0  0  0  0  0  0  0  0  0
   53.9300   80.3140   26.0450 N   0  0  0  0  0  0  0  0  0  0  0  0
   54.3940   81.4400   26.8590 C   0  0  0  0  0  0  0  0  0  0  0  0
   55.6400   82.1000   26.2680 C   0  0  0  0  0  0  0  0  0  0  0  0
   53.3100   82.4730   27.1860 C   0  0  0  0  0  0  0  0  0  0  0  0
   55.8920   78.7990   27.8300 N   0  0  0  0  0  0  0  0  0  0  0  0
   58.3170   80.2050   30.9860 C   0  0  0  0  0  0  0  0  0  0  0  0
   58.8950   81.3780   31.4910 C   0  0  0  0  0  0  0  0  0  0  0  0
   64.4208   80.8264   31.6329 H   0  0  0  0  0  0  0  0  0  0  0  0
   65.4082   81.8338   30.3522 H   0  0  0  0  0  0  0  0  0  0  0  0
   63.8263   84.8368   30.9409 H   0  0  0  0  0  0  0  0  0  0  0  0
   64.6406   83.9098   29.6354 H   0  0  0  0  0  0  0  0  0  0  0  0
   62.8523   84.0794   29.6354 H   0  0  0  0  0  0  0  0  0  0  0  0
   61.5809   84.6897   32.1102 H   0  0  0  0  0  0  0  0  0  0  0  0
   59.5410   84.4058   31.0147 H   0  0  0  0  0  0  0  0  0  0  0  0
   60.2001   82.6257   28.6067 H   0  0  0  0  0  0  0  0  0  0  0  0
   59.1764   80.5433   27.7191 H   0  0  0  0  0  0  0  0  0  0  0  0
   58.4670   77.9740   28.8400 H   0  0  0  0  0  0  0  0  0  0  0  0
   54.1902   76.3703   30.2057 H   0  0  0  0  0  0  0  0  0  0  0  0
   53.1543   77.2279   25.3811 H   0  0  0  0  0  0  0  0  0  0  0  0
   52.9594   82.4524   24.6508 H   0  0  0  0  0  0  0  0  0  0  0  0
   53.9918   81.7672   23.3503 H   0  0  0  0  0  0  0  0  0  0  0  0
   52.2226   81.4562   23.3503 H   0  0  0  0  0  0  0  0  0  0  0  0
   54.6711   80.9933   27.8253 H   0  0  0  0  0  0  0  0  0  0  0  0
   56.2931   82.4459   27.0827 H   0  0  0  0  0  0  0  0  0  0  0  0
   56.1821   81.3708   25.6480 H   0  0  0  0  0  0  0  0  0  0  0  0
   55.3413   82.9581   25.6480 H   0  0  0  0  0  0  0  0  0  0  0  0
   53.2109   82.5675   28.2774 H   0  0  0  0  0  0  0  0  0  0  0  0
   53.5902   83.4466   26.7576 H   0  0  0  0  0  0  0  0  0  0  0  0
   52.3510   82.1463   26.7576 H   0  0  0  0  0  0  0  0  0  0  0  0
   57.7732   79.5350   31.6682 H   0  0  0  0  0  0  0  0  0  0  0  0
   58.8015   81.6143   32.5612 H   0  0  0  0  0  0  0  0  0  0  0  0
  1  2  2  0
  2  3  1  0
  2  4  1  0
  4  5  2  0
  4  6  1  0
  6  7  2  3
  7  8  1  0
  8  9  1  0
  9 10  2  0
 10 11  1  0
 11 12  1  0
 12 13  1  0
 13 14  2  0
 14 15  1  0
 15 16  2  0
 16 17  1  0
 16 18  1  0
 18 19  1  0
 19 20  2  0
 20 21  1  0
 21 22  2  0
 22 23  1  0
 22 24  1  0
 24 25  1  0
 25 26  1  0
 25 27  1  0
 18 28  2  0
 11 29  2  0
 29 30  1  0
 30  8  2  0
 28 13  1  0
 24 19  1  0
  1 31  1  0
  1 32  1  0
  3 33  1  0
  3 34  1  0
  3 35  1  0
  6 36  1  0
  7 37  1  0
  9 38  1  0
 10 39  1  0
 12 40  1  0
 15 41  1  0
 20 42  1  0
 23 43  1  0
 23 44  1  0
 23 45  1  0
 25 46  1  0
 26 47  1  0
 26 48  1  0
 26 49  1  0
 27 50  1  0
 27 51  1  0
 27 52  1  0
 29 53  1  0
 30 54  1  0
M  END
>  <meeko>  (1) 
{"is_sidechain": false}

>  <smiles>  (1) 
C=C(C)C(=O)C=Cc1ccc(Nc2ncc(F)c(-c3cnc(C)n3C(C)C)n2)cc1

>  <vina_score>  (1) 
-9.069

>  <job_id>  (1) 
c2e4d4cddeadb4df

$$$$
