
     RDKit          3D

 40 41  0  0  0  0  0  0  0  0999 V2000
   52.6790   80.6420   23.2310 C   0  0  0  0  0  0  0  0  0  0  0  0
   53.6850   80.6160   24.2650 N   0  0  0  0  0  0  0  0  0  0  0  0
   53.5450   79.7750   25.3510 C   0  0  0  0  0  0  0  0  0  0  0  0
   52.5600   79.0720   25.5440 O   0  0  0  0  0  0  0  0  0  0  0  0
   54.6950   79.7230   26.2960 C   0  0  0  0  0  0  0  0  0  0  0  0
   55.7030   80.6880   26.1720 C   0  0  0  0  0  0  0  0  0  0  0  0
   56.8000   80.6740   27.0370 C   0  0  0  0  0  0  0  0  0  0  0  0
   56.9090   79.6820   28.0200 C   0  0  0  0  0  0  0  0  0  0  0  0
   58.0940   79.7070   28.9240 C   0  0  0  0  0  0  0  0  0  0  0  0
   58.9350   78.8230   28.8070 O   0  0  0  0  0  0  0  0  0  0  0  0
   58.1050   80.7330   29.8370 N   0  0  0  0  0  0  0  0  0  0  0  0
   59.0830   81.0350   30.7840 C   0  0  0  0  0  0  0  0  0  0  0  0
   59.0600   80.6070   32.0980 C   0  0  0  0  0  0  0  0  0  0  0  0
   60.1090   80.9790   32.9510 C   0  0  0  0  0  0  0  0  0  0  0  0
   61.1710   81.7750   32.5090 C   0  0  0  0  0  0  0  0  0  0  0  0
   62.2350   82.1450   33.3370 N   0  0  0  0  0  0  0  0  0  0  0  0
   63.5890   81.7320   32.9700 C   0  0  0  0  0  0  0  0  0  0  0  0
   61.9880   82.2890   34.7720 C   0  0  0  0  0  0  0  0  0  0  0  0
   61.0860   82.1210   31.1550 C   0  0  0  0  0  0  0  0  0  0  0  0
   60.0860   81.7840   30.2940 N   0  0  0  0  0  0  0  0  0  0  0  0
   55.9020   78.7150   28.1440 C   0  0  0  0  0  0  0  0  0  0  0  0
   54.8020   78.7320   27.2790 C   0  0  0  0  0  0  0  0  0  0  0  0
   51.6804   80.6678   23.6916 H   0  0  0  0  0  0  0  0  0  0  0  0
   52.8180   81.5368   22.6066 H   0  0  0  0  0  0  0  0  0  0  0  0
   52.7716   79.7412   22.6066 H   0  0  0  0  0  0  0  0  0  0  0  0
   54.6080   80.9470   24.0250 H   0  0  0  0  0  0  0  0  0  0  0  0
   55.6305   81.4592   25.3910 H   0  0  0  0  0  0  0  0  0  0  0  0
   57.5802   81.4440   26.9459 H   0  0  0  0  0  0  0  0  0  0  0  0
   57.3030   81.3400   29.9300 H   0  0  0  0  0  0  0  0  0  0  0  0
   58.2322   79.9846   32.4687 H   0  0  0  0  0  0  0  0  0  0  0  0
   60.0964   80.6356   33.9959 H   0  0  0  0  0  0  0  0  0  0  0  0
   64.1774   81.5525   33.8819 H   0  0  0  0  0  0  0  0  0  0  0  0
   63.5420   80.8073   32.3760 H   0  0  0  0  0  0  0  0  0  0  0  0
   64.0661   82.5255   32.3760 H   0  0  0  0  0  0  0  0  0  0  0  0
   62.8048   81.8128   35.3342 H   0  0  0  0  0  0  0  0  0  0  0  0
   61.9391   83.3571   35.0303 H   0  0  0  0  0  0  0  0  0  0  0  0
   61.0344   81.8053   35.0303 H   0  0  0  0  0  0  0  0  0  0  0  0
   61.9090   82.7253   30.7458 H   0  0  0  0  0  0  0  0  0  0  0  0
   55.9764   77.9414   28.9225 H   0  0  0  0  0  0  0  0  0  0  0  0
   54.0194   77.9646   27.3717 H   0  0  0  0  0  0  0  0  0  0  0  0
  1  2  1  0
  2  3  1  0
  3  4  2  0
  3  5  1  0
  5  6  1  0
  6  7  2  0
  7  8  1  0
  8  9  1  0
  9 10  2  0
  9 11  1  0
 11 12  1  0
 12 13  2  0
 13 14  1  0
 14 15  2  0
 15 16  1  0
 16 17  1  0
 16 18  1  0
 15 19  1  0
 19 20  2  0
  8 21  2  0
 21 22  1  0
 22  5  2  0
 20 12  1  0
  1 23  1  0
  1 24  1  0
  1 25  1  0
  2 26  1  0
  6 27  1  0
  7 28  1  0
 11 29  1  0
 13 30  1  0
 14 31  1  0
 17 32  1  0
 17 33  1  0
 17 34  1  0
 18 35  1  0
 18 36  1  0
 18 37  1  0
 19 38  1  0
 21 39  1  0
 22 40  1  0
M  END
>  <meeko>  (1) 
{"is_sidechain": false}

>  <smiles>  (1) 
CNC(=O)c1ccc(C(=O)Nc2ccc(N(C)C)cn2)cc1

>  <vina_score>  (1) 
-7.111

>  <job_id>  (1) 
c3d6e0579636a40b

$$$$
