
     RDKit          3D

 60 65  0  0  0  0  0  0  0  0999 V2000
   66.1030   83.9810   29.5080 N   0  0  0  0  0  0  0  0  0  0  0  0
   65.1730   84.4910   30.5120 C   0  0  1  0  0  0  0  0  0  0  0  0
   63.9740   85.2120   29.8950 C   0  0  0  0  0  0  0  0  0  0  0  0
   62.9980   85.2920   31.0690 C   0  0  0  0  0  0  0  0  0  0  0  0
   63.2190   84.0300   31.7690 N   0  0  0  0  0  0  0  0  0  0  0  0
   62.6150   83.8040   32.9940 C   0  0  0  0  0  0  0  0  0  0  0  0
   63.0630   84.3880   34.1860 C   0  0  0  0  0  0  0  0  0  0  0  0
   62.3870   84.0740   35.3710 C   0  0  0  0  0  0  0  0  0  0  0  0
   61.3180   83.2530   35.4380 N   0  0  0  0  0  0  0  0  0  0  0  0
   60.8730   82.7110   34.2970 C   0  0  0  0  0  0  0  0  0  0  0  0
   59.7600   81.8850   34.3520 C   0  0  0  0  0  0  0  0  0  0  0  0
   59.2180   81.2870   33.2070 C   0  0  0  0  0  0  0  0  0  0  0  0
   59.7870   81.4980   31.9470 C   0  0  0  0  0  0  0  0  0  0  0  0
   59.2420   80.9060   30.7070 C   0  0  0  0  0  0  0  0  0  0  0  0
   59.6840   81.2420   29.4430 C   0  0  0  0  0  0  0  0  0  0  0  0
   59.0660   80.6030   28.3950 C   0  0  0  0  0  0  0  0  0  0  0  0
   58.0830   79.6980   28.5480 N   0  0  0  0  0  0  0  0  0  0  0  0
   57.7110   79.4330   29.8080 C   0  0  0  0  0  0  0  0  0  0  0  0
   56.6840   78.5130   29.9150 N   0  0  0  0  0  0  0  0  0  0  0  0
   55.6820   78.3140   29.0090 C   0  0  0  0  0  0  0  0  0  0  0  0
   55.4620   78.9080   27.9660 O   0  0  0  0  0  0  0  0  0  0  0  0
   54.7480   77.2270   29.4240 C   0  0  0  0  0  0  0  0  0  0  0  0
   54.9560   75.7960   28.9820 C   0  0  0  0  0  0  0  0  0  0  0  0
   53.8350   76.6010   28.3960 C   0  0  0  0  0  0  0  0  0  0  0  0
   58.2550   80.0010   30.8840 N   0  0  0  0  0  0  0  0  0  0  0  0
   60.9180   82.3340   31.9000 C   0  0  0  0  0  0  0  0  0  0  0  0
   61.4760   82.9510   33.0490 C   0  0  0  0  0  0  0  0  0  0  0  0
   62.8450   84.7210   36.6530 C   0  0  0  0  0  0  0  0  0  0  0  0
   64.3680   84.6750   36.7590 C   0  0  0  0  0  0  0  0  0  0  0  0
   65.0940   85.1070   35.4770 C   0  0  0  0  0  0  0  0  0  0  0  0
   64.1680   85.4050   34.2940 C   0  0  0  0  0  0  0  0  0  0  0  0
   64.4950   83.4190   31.3990 C   0  0  0  0  0  0  0  0  0  0  0  0
   66.3620   84.7280   28.8670 H   0  0  0  0  0  0  0  0  0  0  0  0
   65.6470   83.2600   28.9540 H   0  0  0  0  0  0  0  0  0  0  0  0
   65.8385   85.1394   31.1008 H   0  0  0  0  0  0  0  0  0  0  0  0
   64.2526   86.2153   29.5402 H   0  0  0  0  0  0  0  0  0  0  0  0
   63.5598   84.7003   29.0137 H   0  0  0  0  0  0  0  0  0  0  0  0
   63.2300   86.1495   31.7178 H   0  0  0  0  0  0  0  0  0  0  0  0
   61.9537   85.4352   30.7545 H   0  0  0  0  0  0  0  0  0  0  0  0
   59.2875   81.6933   35.3267 H   0  0  0  0  0  0  0  0  0  0  0  0
   58.3318   80.6420   33.3003 H   0  0  0  0  0  0  0  0  0  0  0  0
   60.4850   81.9790   29.2839 H   0  0  0  0  0  0  0  0  0  0  0  0
   59.3938   80.8454   27.3734 H   0  0  0  0  0  0  0  0  0  0  0  0
   56.7310   77.9540   30.7510 H   0  0  0  0  0  0  0  0  0  0  0  0
   54.6239   77.7200   30.3995 H   0  0  0  0  0  0  0  0  0  0  0  0
   55.8261   75.5333   28.3624 H   0  0  0  0  0  0  0  0  0  0  0  0
   55.0294   74.8270   29.4973 H   0  0  0  0  0  0  0  0  0  0  0  0
   53.8837   76.9278   27.3468 H   0  0  0  0  0  0  0  0  0  0  0  0
   52.7473   76.4650   28.3045 H   0  0  0  0  0  0  0  0  0  0  0  0
   61.3925   82.5180   30.9248 H   0  0  0  0  0  0  0  0  0  0  0  0
   62.5122   85.7693   36.6688 H   0  0  0  0  0  0  0  0  0  0  0  0
   62.4118   84.1737   37.5031 H   0  0  0  0  0  0  0  0  0  0  0  0
   64.6788   85.3438   37.5752 H   0  0  0  0  0  0  0  0  0  0  0  0
   64.6437   83.6264   36.9442 H   0  0  0  0  0  0  0  0  0  0  0  0
   65.6718   86.0163   35.6989 H   0  0  0  0  0  0  0  0  0  0  0  0
   65.7265   84.2595   35.1742 H   0  0  0  0  0  0  0  0  0  0  0  0
   63.7237   86.4019   34.4306 H   0  0  0  0  0  0  0  0  0  0  0  0
   64.7648   85.3644   33.3708 H   0  0  0  0  0  0  0  0  0  0  0  0
   65.1020   83.2077   32.2917 H   0  0  0  0  0  0  0  0  0  0  0  0
   64.3719   82.4552   30.8832 H   0  0  0  0  0  0  0  0  0  0  0  0
  1  2  1  0
  2  3  1  0
  3  4  1  0
  4  5  1  0
  5  6  1  0
  6  7  2  0
  7  8  1  0
  8  9  2  0
  9 10  1  0
 10 11  2  0
 11 12  1  0
 12 13  2  0
 13 14  1  0
 14 15  1  0
 15 16  2  0
 16 17  1  0
 17 18  2  0
 18 19  1  0
 19 20  1  0
 20 21  2  0
 20 22  1  0
 22 23  1  0
 23 24  1  0
 18 25  1  0
 13 26  1  0
 26 27  2  0
  8 28  1  0
 28 29  1  0
 29 30  1  0
 30 31  1  0
  5 32  1  0
 32  2  1  0
 27  6  1  0
 31  7  1  0
 27 10  1  0
 25 14  2  0
 24 22  1  0
  1 33  1  0
  1 34  1  0
  2 35  1  1
  3 36  1  0
  3 37  1  0
  4 38  1  0
  4 39  1  0
 11 40  1  0
 12 41  1  0
 15 42  1  0
 16 43  1  0
 19 44  1  0
 22 45  1  0
 23 46  1  0
 23 47  1  0
 24 48  1  0
 24 49  1  0
 26 50  1  0
 28 51  1  0
 28 52  1  0
 29 53  1  0
 29 54  1  0
 30 55  1  0
 30 56  1  0
 31 57  1  0
 31 58  1  0
 32 59  1  0
 32 60  1  0
M  END
>  <meeko>  (1) 
{"is_sidechain": false}

>  <smiles>  (1) 
N[C@H]1CCN(c2c3c(nc4ccc(-c5ccnc(NC(=O)C6CC6)n5)cc24)CCCC3)C1

>  <vina_score>  (1) 
-7.131

>  <job_id>  (1) 
c42adba9e92246fb

$$$$
