
     RDKit          3D

 48 50  0  0  0  0  0  0  0  0999 V2000
   52.5840   75.7480   27.9990 C   0  0  0  0  0  0  0  0  0  0  0  0
   53.6980   76.7210   28.2490 C   0  0  0  0  0  0  0  0  0  0  0  0
   54.8450   76.3190   28.9400 C   0  0  0  0  0  0  0  0  0  0  0  0
   55.9010   77.2120   29.1450 C   0  0  0  0  0  0  0  0  0  0  0  0
   55.8230   78.5130   28.6530 C   0  0  0  0  0  0  0  0  0  0  0  0
   56.8280   79.4830   28.8370 N   0  0  0  0  0  0  0  0  0  0  0  0
   58.1920   79.3580   28.6820 C   0  0  0  0  0  0  0  0  0  0  0  0
   58.7980   78.3310   28.3880 O   0  0  0  0  0  0  0  0  0  0  0  0
   58.9490   80.6500   28.9580 C   0  0  0  0  0  0  0  0  0  0  0  0
   58.6790   81.2490   30.3200 C   0  0  0  0  0  0  0  0  0  0  0  0
   58.5600   82.6390   30.4760 C   0  0  0  0  0  0  0  0  0  0  0  0
   58.3000   83.1890   31.7310 C   0  0  0  0  0  0  0  0  0  0  0  0
   58.1670   82.3610   32.8430 C   0  0  0  0  0  0  0  0  0  0  0  0
   58.3010   80.9820   32.7030 C   0  0  0  0  0  0  0  0  0  0  0  0
   58.5580   80.4270   31.4480 C   0  0  0  0  0  0  0  0  0  0  0  0
   54.6760   78.9390   27.9350 C   0  0  0  0  0  0  0  0  0  0  0  0
   54.6500   80.2590   27.4040 N   0  0  0  0  0  0  0  0  0  0  0  0
   55.4900   80.3490   26.1850 C   0  0  0  0  0  0  0  0  0  0  0  0
   55.1850   81.6220   25.3950 C   0  0  0  0  0  0  0  0  0  0  0  0
   54.7090   82.7410   26.3110 C   0  0  0  0  0  0  0  0  0  0  0  0
   54.4600   83.9100   25.5320 O   0  0  0  0  0  0  0  0  0  0  0  0
   53.4420   82.3500   27.0760 C   0  0  0  0  0  0  0  0  0  0  0  0
   53.3100   80.8360   27.2490 C   0  0  0  0  0  0  0  0  0  0  0  0
   53.6280   78.0250   27.7390 C   0  0  0  0  0  0  0  0  0  0  0  0
   52.1815   75.3965   28.9605 H   0  0  0  0  0  0  0  0  0  0  0  0
   51.7860   76.2435   27.4266 H   0  0  0  0  0  0  0  0  0  0  0  0
   52.9676   74.8906   27.4266 H   0  0  0  0  0  0  0  0  0  0  0  0
   54.9172   75.2914   29.3257 H   0  0  0  0  0  0  0  0  0  0  0  0
   56.7956   76.8865   29.6961 H   0  0  0  0  0  0  0  0  0  0  0  0
   56.4430   80.4000   29.0520 H   0  0  0  0  0  0  0  0  0  0  0  0
   60.0263   80.4417   28.8804 H   0  0  0  0  0  0  0  0  0  0  0  0
   58.6017   81.3840   28.2159 H   0  0  0  0  0  0  0  0  0  0  0  0
   58.6725   83.2986   29.6029 H   0  0  0  0  0  0  0  0  0  0  0  0
   58.1998   84.2787   31.8428 H   0  0  0  0  0  0  0  0  0  0  0  0
   57.9563   82.7960   33.8311 H   0  0  0  0  0  0  0  0  0  0  0  0
   58.2042   80.3288   33.5828 H   0  0  0  0  0  0  0  0  0  0  0  0
   58.6662   79.3373   31.3442 H   0  0  0  0  0  0  0  0  0  0  0  0
   56.5499   80.3549   26.4794 H   0  0  0  0  0  0  0  0  0  0  0  0
   55.2694   79.4815   25.5456 H   0  0  0  0  0  0  0  0  0  0  0  0
   56.0978   81.9484   24.8751 H   0  0  0  0  0  0  0  0  0  0  0  0
   54.3847   81.3996   24.6739 H   0  0  0  0  0  0  0  0  0  0  0  0
   55.4978   82.9367   27.0523 H   0  0  0  0  0  0  0  0  0  0  0  0
   55.2210   84.5040   25.6480 H   0  0  0  0  0  0  0  0  0  0  0  0
   53.4713   82.8181   28.0710 H   0  0  0  0  0  0  0  0  0  0  0  0
   52.5768   82.6979   26.4926 H   0  0  0  0  0  0  0  0  0  0  0  0
   52.7076   80.6172   28.1430 H   0  0  0  0  0  0  0  0  0  0  0  0
   52.8155   80.4010   26.3680 H   0  0  0  0  0  0  0  0  0  0  0  0
   52.7366   78.3377   27.1755 H   0  0  0  0  0  0  0  0  0  0  0  0
  1  2  1  0
  2  3  1  0
  3  4  2  0
  4  5  1  0
  5  6  1  0
  6  7  1  0
  7  8  2  0
  7  9  1  0
  9 10  1  0
 10 11  2  0
 11 12  1  0
 12 13  2  0
 13 14  1  0
 14 15  2  0
  5 16  2  0
 16 17  1  0
 17 18  1  0
 18 19  1  0
 19 20  1  0
 20 21  1  0
 20 22  1  0
 22 23  1  0
 16 24  1  0
 24  2  2  0
 15 10  1  0
 23 17  1  0
  1 25  1  0
  1 26  1  0
  1 27  1  0
  3 28  1  0
  4 29  1  0
  6 30  1  0
  9 31  1  0
  9 32  1  0
 11 33  1  0
 12 34  1  0
 13 35  1  0
 14 36  1  0
 15 37  1  0
 18 38  1  0
 18 39  1  0
 19 40  1  0
 19 41  1  0
 20 42  1  0
 21 43  1  0
 22 44  1  0
 22 45  1  0
 23 46  1  0
 23 47  1  0
 24 48  1  0
M  END
>  <meeko>  (1) 
{"is_sidechain": false}

>  <smiles>  (1) 
Cc1ccc(NC(=O)Cc2ccccc2)c(N2CCC(O)CC2)c1

>  <vina_score>  (1) 
-8.297

>  <job_id>  (1) 
c4b2a71e022c0e0f

$$$$
