
     RDKit          3D

 60 64  0  0  0  0  0  0  0  0999 V2000
   53.2360   77.8490   28.0630 C   0  0  0  0  0  0  0  0  0  0  0  0
   54.4970   78.7340   27.9670 C   0  0  0  0  0  0  0  0  0  0  0  0
   55.7240   77.9150   28.4710 C   0  0  0  0  0  0  0  0  0  0  0  0
   56.8940   78.7480   28.9330 C   0  0  0  0  0  0  0  0  0  0  0  0
   57.0610   79.0930   30.2710 C   0  0  0  0  0  0  0  0  0  0  0  0
   58.1650   79.8570   30.6510 C   0  0  0  0  0  0  0  0  0  0  0  0
   59.0910   80.2670   29.6920 C   0  0  0  0  0  0  0  0  0  0  0  0
   60.1800   81.0410   30.1270 N   0  0  0  0  0  0  0  0  0  0  0  0
   60.1280   82.1350   30.9920 C   0  0  0  0  0  0  0  0  0  0  0  0
   59.7160   83.3380   30.5500 N   0  0  0  0  0  0  0  0  0  0  0  0
   59.7090   84.3910   31.3950 C   0  0  0  0  0  0  0  0  0  0  0  0
   60.1500   84.2250   32.7010 C   0  0  0  0  0  0  0  0  0  0  0  0
   60.2960   85.0480   33.8410 C   0  0  0  0  0  0  0  0  0  0  0  0
   60.7990   84.2650   34.8650 C   0  0  0  0  0  0  0  0  0  0  0  0
   60.9780   82.9850   34.3580 N   0  0  0  0  0  0  0  0  0  0  0  0
   60.5750   82.9520   33.0470 C   0  0  0  0  0  0  0  0  0  0  0  0
   60.5930   81.8860   32.2310 N   0  0  0  0  0  0  0  0  0  0  0  0
   61.5630   81.9170   35.1880 C   0  0  0  0  0  0  0  0  0  0  0  0
   61.1170   80.4800   34.8370 C   0  0  0  0  0  0  0  0  0  0  0  0
   62.2360   79.8580   33.9960 C   0  0  0  0  0  0  0  0  0  0  0  0
   63.3110   80.9240   33.8360 C   0  0  0  0  0  0  0  0  0  0  0  0
   63.0950   81.8660   35.0100 C   0  0  0  0  0  0  0  0  0  0  0  0
   61.1860   82.2260   36.6580 C   0  0  0  0  0  0  0  0  0  0  0  0
   61.4730   83.5960   37.0340 N   0  0  0  0  0  0  0  0  0  0  0  0
   61.1110   84.6430   36.2230 C   0  0  0  0  0  0  0  0  0  0  0  0
   61.0640   85.7860   36.6600 O   0  0  0  0  0  0  0  0  0  0  0  0
   58.9350   79.9370   28.3940 N   0  0  0  0  0  0  0  0  0  0  0  0
   57.8650   79.1890   28.0440 C   0  0  0  0  0  0  0  0  0  0  0  0
   54.7070   79.2370   26.5750 N   0  0  0  0  0  0  0  0  0  0  0  0
   53.6820   78.7510   25.6420 C   0  0  0  0  0  0  0  0  0  0  0  0
   54.7240   80.7050   26.5150 C   0  0  0  0  0  0  0  0  0  0  0  0
   52.9893   77.6758   29.1209 H   0  0  0  0  0  0  0  0  0  0  0  0
   52.3941   78.3554   27.5683 H   0  0  0  0  0  0  0  0  0  0  0  0
   53.4260   76.8851   27.5683 H   0  0  0  0  0  0  0  0  0  0  0  0
   54.3681   79.6223   28.6029 H   0  0  0  0  0  0  0  0  0  0  0  0
   55.3951   77.2896   29.3140 H   0  0  0  0  0  0  0  0  0  0  0  0
   56.0808   77.3304   27.6102 H   0  0  0  0  0  0  0  0  0  0  0  0
   56.3281   78.7658   31.0232 H   0  0  0  0  0  0  0  0  0  0  0  0
   58.3049   80.1357   31.7059 H   0  0  0  0  0  0  0  0  0  0  0  0
   60.9480   80.4650   30.4370 H   0  0  0  0  0  0  0  0  0  0  0  0
   59.3561   85.3744   31.0509 H   0  0  0  0  0  0  0  0  0  0  0  0
   60.0532   86.1191   33.9030 H   0  0  0  0  0  0  0  0  0  0  0  0
   60.9661   79.8958   35.7567 H   0  0  0  0  0  0  0  0  0  0  0  0
   60.1668   80.4876   34.2829 H   0  0  0  0  0  0  0  0  0  0  0  0
   62.6497   78.9770   34.5085 H   0  0  0  0  0  0  0  0  0  0  0  0
   61.8575   79.5294   33.0169 H   0  0  0  0  0  0  0  0  0  0  0  0
   64.3137   80.4738   33.8788 H   0  0  0  0  0  0  0  0  0  0  0  0
   63.2440   81.4419   32.8679 H   0  0  0  0  0  0  0  0  0  0  0  0
   63.5789   81.4743   35.9169 H   0  0  0  0  0  0  0  0  0  0  0  0
   63.5288   82.8612   34.8329 H   0  0  0  0  0  0  0  0  0  0  0  0
   60.1095   82.0429   36.7909 H   0  0  0  0  0  0  0  0  0  0  0  0
   61.7929   81.5714   37.3008 H   0  0  0  0  0  0  0  0  0  0  0  0
   61.5420   83.8520   38.0130 H   0  0  0  0  0  0  0  0  0  0  0  0
   57.7564   78.9114   26.9852 H   0  0  0  0  0  0  0  0  0  0  0  0
   52.8309   78.3474   26.2101 H   0  0  0  0  0  0  0  0  0  0  0  0
   53.3390   79.5823   25.0086 H   0  0  0  0  0  0  0  0  0  0  0  0
   54.1085   77.9593   25.0086 H   0  0  0  0  0  0  0  0  0  0  0  0
   54.7287   81.1137   27.5363 H   0  0  0  0  0  0  0  0  0  0  0  0
   55.6261   81.0398   25.9819 H   0  0  0  0  0  0  0  0  0  0  0  0
   53.8299   81.0606   25.9819 H   0  0  0  0  0  0  0  0  0  0  0  0
  1  2  1  0
  2  3  1  0
  3  4  1  0
  4  5  2  0
  5  6  1  0
  6  7  2  0
  7  8  1  0
  8  9  1  0
  9 10  2  0
 10 11  1  0
 11 12  2  0
 12 13  1  0
 13 14  2  0
 14 15  1  0
 15 16  1  0
 16 17  2  0
 15 18  1  0
 18 19  1  0
 19 20  1  0
 20 21  1  0
 21 22  1  0
 18 23  1  0
 23 24  1  0
 24 25  1  0
 25 26  2  0
  7 27  1  0
 27 28  2  0
  2 29  1  0
 29 30  1  0
 29 31  1  0
 28  4  1  0
 17  9  1  0
 22 18  1  0
 16 12  1  0
 25 14  1  0
  1 32  1  0
  1 33  1  0
  1 34  1  0
  2 35  1  0
  3 36  1  0
  3 37  1  0
  5 38  1  0
  6 39  1  0
  8 40  1  0
 11 41  1  0
 13 42  1  0
 19 43  1  0
 19 44  1  0
 20 45  1  0
 20 46  1  0
 21 47  1  0
 21 48  1  0
 22 49  1  0
 22 50  1  0
 23 51  1  0
 23 52  1  0
 24 53  1  0
 28 54  1  0
 30 55  1  0
 30 56  1  0
 30 57  1  0
 31 58  1  0
 31 59  1  0
 31 60  1  0
M  END
>  <meeko>  (1) 
{"is_sidechain": false}

>  <smiles>  (1) 
CC(Cc1ccc(Nc2ncc3cc4n(c3n2)C2(CCCC2)CNC4=O)nc1)N(C)C

>  <vina_score>  (1) 
-7.753

>  <job_id>  (1) 
c4b55f054f6074cd

$$$$
