
     RDKit          3D

 38 39  0  0  0  0  0  0  0  0999 V2000
   61.5800   80.1650   34.0190 C   0  0  0  0  0  0  0  0  0  0  0  0
   62.4410   81.3520   33.6270 C   0  0  0  0  0  0  0  0  0  0  0  0
   61.8840   82.1060   32.4300 C   0  0  0  0  0  0  0  0  0  0  0  0
   62.2390   83.2420   32.1440 O   0  0  0  0  0  0  0  0  0  0  0  0
   60.9050   81.3720   31.7780 N   0  0  0  0  0  0  0  0  0  0  0  0
   60.3640   81.6850   30.5440 C   0  0  0  0  0  0  0  0  0  0  0  0
   60.7780   82.5370   29.7710 O   0  0  0  0  0  0  0  0  0  0  0  0
   59.2300   80.8170   30.1190 C   0  0  0  0  0  0  0  0  0  0  0  0
   58.9240   80.6080   28.7710 C   0  0  0  0  0  0  0  0  0  0  0  0
   57.8480   79.7850   28.4170 C   0  0  0  0  0  0  0  0  0  0  0  0
   57.0660   79.1500   29.3970 C   0  0  0  0  0  0  0  0  0  0  0  0
   55.9390   78.2820   29.0200 C   0  0  0  0  0  0  0  0  0  0  0  0
   54.9340   78.7330   28.1470 C   0  0  0  0  0  0  0  0  0  0  0  0
   53.8590   77.9100   27.7850 C   0  0  0  0  0  0  0  0  0  0  0  0
   53.7680   76.6150   28.2900 C   0  0  0  0  0  0  0  0  0  0  0  0
   52.7780   75.7110   28.0200 O   0  0  0  0  0  0  0  0  0  0  0  0
   52.2550   75.7060   26.6990 C   0  0  0  0  0  0  0  0  0  0  0  0
   54.7600   76.1530   29.1570 C   0  0  0  0  0  0  0  0  0  0  0  0
   55.8320   76.9760   29.5190 C   0  0  0  0  0  0  0  0  0  0  0  0
   57.3990   79.3570   30.7450 C   0  0  0  0  0  0  0  0  0  0  0  0
   58.4730   80.1770   31.1060 C   0  0  0  0  0  0  0  0  0  0  0  0
   61.5293   80.0951   35.1156 H   0  0  0  0  0  0  0  0  0  0  0  0
   60.5664   80.2972   33.6127 H   0  0  0  0  0  0  0  0  0  0  0  0
   62.0204   79.2425   33.6127 H   0  0  0  0  0  0  0  0  0  0  0  0
   62.5007   82.0419   34.4817 H   0  0  0  0  0  0  0  0  0  0  0  0
   63.4328   80.9673   33.3473 H   0  0  0  0  0  0  0  0  0  0  0  0
   60.6310   80.4970   32.1980 H   0  0  0  0  0  0  0  0  0  0  0  0
   59.5285   81.0901   27.9886 H   0  0  0  0  0  0  0  0  0  0  0  0
   57.6107   79.6329   27.3537 H   0  0  0  0  0  0  0  0  0  0  0  0
   54.9925   79.7531   27.7395 H   0  0  0  0  0  0  0  0  0  0  0  0
   53.0852   78.2876   27.1004 H   0  0  0  0  0  0  0  0  0  0  0  0
   51.1558   75.6955   26.7399 H   0  0  0  0  0  0  0  0  0  0  0  0
   52.5936   76.6074   26.1672 H   0  0  0  0  0  0  0  0  0  0  0  0
   52.6107   74.8112   26.1672 H   0  0  0  0  0  0  0  0  0  0  0  0
   54.6981   75.1312   29.5597 H   0  0  0  0  0  0  0  0  0  0  0  0
   56.6019   76.5930   30.2049 H   0  0  0  0  0  0  0  0  0  0  0  0
   56.8054   78.8662   31.5303 H   0  0  0  0  0  0  0  0  0  0  0  0
   58.7228   80.3189   32.1678 H   0  0  0  0  0  0  0  0  0  0  0  0
  1  2  1  0
  2  3  1  0
  3  4  2  0
  3  5  1  0
  5  6  1  0
  6  7  2  0
  6  8  1  0
  8  9  1  0
  9 10  2  0
 10 11  1  0
 11 12  1  0
 12 13  1  0
 13 14  2  0
 14 15  1  0
 15 16  1  0
 16 17  1  0
 15 18  2  0
 18 19  1  0
 11 20  2  0
 20 21  1  0
 21  8  2  0
 19 12  2  0
  1 22  1  0
  1 23  1  0
  1 24  1  0
  2 25  1  0
  2 26  1  0
  5 27  1  0
  9 28  1  0
 10 29  1  0
 13 30  1  0
 14 31  1  0
 17 32  1  0
 17 33  1  0
 17 34  1  0
 18 35  1  0
 19 36  1  0
 20 37  1  0
 21 38  1  0
M  END
>  <meeko>  (1) 
{"is_sidechain": false}

>  <smiles>  (1) 
CCC(=O)NC(=O)c1ccc(-c2ccc(OC)cc2)cc1

>  <vina_score>  (1) 
-7.855

>  <job_id>  (1) 
c4b5679ca2367c9d

$$$$
