
     RDKit          3D

 55 56  0  0  0  0  0  0  0  0999 V2000
   52.1800   81.3470   24.2520 C   0  0  0  0  0  0  0  0  0  0  0  0
   53.3610   82.2000   24.7090 C   0  0  1  0  0  0  0  0  0  0  0  0
   52.9350   83.5580   24.8460 O   0  0  0  0  0  0  0  0  0  0  0  0
   54.0530   81.7010   26.0010 C   0  0  1  0  0  0  0  0  0  0  0  0
   53.3110   82.1240   27.2700 C   0  0  0  0  0  0  0  0  0  0  0  0
   54.1090   80.2680   25.9350 O   0  0  0  0  0  0  0  0  0  0  0  0
   54.9000   79.6370   26.8710 C   0  0  0  0  0  0  0  0  0  0  0  0
   56.1300   80.1270   27.1210 N   0  0  0  0  0  0  0  0  0  0  0  0
   56.8720   79.5060   28.0480 C   0  0  0  0  0  0  0  0  0  0  0  0
   58.1330   80.0560   28.2570 N   0  0  0  0  0  0  0  0  0  0  0  0
   58.8070   80.5490   29.3790 C   0  0  0  0  0  0  0  0  0  0  0  0
   59.9480   81.3570   29.3120 C   0  0  0  0  0  0  0  0  0  0  0  0
   60.5890   81.8100   30.4710 C   0  0  0  0  0  0  0  0  0  0  0  0
   60.0980   81.4360   31.7210 C   0  0  0  0  0  0  0  0  0  0  0  0
   60.9070   82.0380   33.1910 S   0  0  0  0  0  0  0  0  0  0  0  0
   59.8810   82.6510   34.0190 O   0  0  0  0  0  0  0  0  0  0  0  0
   62.0010   82.8690   32.7060 O   0  0  0  0  0  0  0  0  0  0  0  0
   61.5820   80.5700   33.9770 C   0  0  0  0  0  0  0  0  0  0  0  0
   61.0330   79.4180   33.4560 F   0  0  0  0  0  0  0  0  0  0  0  0
   62.9330   80.4440   33.7450 F   0  0  0  0  0  0  0  0  0  0  0  0
   61.2560   80.6760   35.7820 S   0  0  0  0  0  0  0  0  0  0  0  0
   59.5610   80.6050   35.8990 N   0  0  0  0  0  0  0  0  0  0  0  0
   61.6730   79.4800   36.4820 O   0  0  0  0  0  0  0  0  0  0  0  0
   61.5620   81.9900   36.3050 O   0  0  0  0  0  0  0  0  0  0  0  0
   58.9500   80.6530   31.8210 C   0  0  0  0  0  0  0  0  0  0  0  0
   58.3210   80.2090   30.6530 C   0  0  0  0  0  0  0  0  0  0  0  0
   56.4340   78.4420   28.7310 N   0  0  0  0  0  0  0  0  0  0  0  0
   55.1990   77.9850   28.4510 C   0  0  0  0  0  0  0  0  0  0  0  0
   54.3650   78.5450   27.5120 C   0  0  0  0  0  0  0  0  0  0  0  0
   52.9950   78.0150   27.2550 C   0  0  0  0  0  0  0  0  0  0  0  0
   52.1860   78.9810   26.7330 F   0  0  0  0  0  0  0  0  0  0  0  0
   52.3520   77.6470   28.3970 F   0  0  0  0  0  0  0  0  0  0  0  0
   52.9340   76.9340   26.3100 N   0  0  0  0  0  0  0  0  0  0  0  0
   52.4100   75.7730   26.9390 C   0  0  0  0  0  0  0  0  0  0  0  0
   53.3650   75.2320   27.7230 F   0  0  0  0  0  0  0  0  0  0  0  0
   52.0730   74.8440   26.0250 F   0  0  0  0  0  0  0  0  0  0  0  0
   51.3420   76.0390   27.7110 F   0  0  0  0  0  0  0  0  0  0  0  0
   51.6447   80.9604   25.1318 H   0  0  0  0  0  0  0  0  0  0  0  0
   51.4963   81.9611   23.6475 H   0  0  0  0  0  0  0  0  0  0  0  0
   52.5481   80.5049   23.6475 H   0  0  0  0  0  0  0  0  0  0  0  0
   54.1325   82.1150   23.9295 H   0  0  0  0  0  0  0  0  0  0  0  0
   52.7520   83.9120   23.9590 H   0  0  0  0  0  0  0  0  0  0  0  0
   55.0558   82.1494   26.0581 H   0  0  0  0  0  0  0  0  0  0  0  0
   53.8806   81.7993   28.1533 H   0  0  0  0  0  0  0  0  0  0  0  0
   53.2042   83.2187   27.2847 H   0  0  0  0  0  0  0  0  0  0  0  0
   52.3146   81.6582   27.2847 H   0  0  0  0  0  0  0  0  0  0  0  0
   58.6410   80.0500   27.3850 H   0  0  0  0  0  0  0  0  0  0  0  0
   60.3493   81.6419   28.3282 H   0  0  0  0  0  0  0  0  0  0  0  0
   61.4751   82.4574   30.3959 H   0  0  0  0  0  0  0  0  0  0  0  0
   59.2680   80.7820   36.8630 H   0  0  0  0  0  0  0  0  0  0  0  0
   59.2240   79.7150   35.5260 H   0  0  0  0  0  0  0  0  0  0  0  0
   58.5427   80.3868   32.8075 H   0  0  0  0  0  0  0  0  0  0  0  0
   57.4236   79.5780   30.7338 H   0  0  0  0  0  0  0  0  0  0  0  0
   54.8345   77.1093   29.0079 H   0  0  0  0  0  0  0  0  0  0  0  0
   52.2280   77.2010   25.6360 H   0  0  0  0  0  0  0  0  0  0  0  0
  1  2  1  0
  2  3  1  0
  2  4  1  0
  4  5  1  0
  4  6  1  0
  6  7  1  0
  7  8  2  0
  8  9  1  0
  9 10  1  0
 10 11  1  0
 11 12  1  0
 12 13  2  0
 13 14  1  0
 14 15  1  0
 15 16  2  0
 15 17  2  0
 15 18  1  0
 18 19  1  0
 18 20  1  0
 18 21  1  0
 21 22  1  0
 21 23  2  0
 21 24  2  0
 14 25  2  0
 25 26  1  0
  9 27  2  0
 27 28  1  0
 28 29  2  0
 29 30  1  0
 30 31  1  0
 30 32  1  0
 30 33  1  0
 33 34  1  0
 34 35  1  0
 34 36  1  0
 34 37  1  0
 29  7  1  0
 26 11  2  0
  1 38  1  0
  1 39  1  0
  1 40  1  0
  2 41  1  6
  3 42  1  0
  4 43  1  1
  5 44  1  0
  5 45  1  0
  5 46  1  0
 10 47  1  0
 12 48  1  0
 13 49  1  0
 22 50  1  0
 22 51  1  0
 25 52  1  0
 26 53  1  0
 28 54  1  0
 33 55  1  0
M  END
>  <meeko>  (1) 
{"is_sidechain": false}

>  <smiles>  (1) 
C[C@@H](O)[C@@H](C)Oc1nc(Nc2ccc(S(=O)(=O)C(F)(F)S(N)(=O)=O)cc2)ncc1C(F)(F)NC(F)(F)F

>  <vina_score>  (1) 
-9.346

>  <job_id>  (1) 
c4e78bb4b0fb143b

$$$$
