
     RDKit          3D

 48 51  0  0  0  0  0  0  0  0999 V2000
   52.3320   77.1210   27.9830 C   0  0  0  0  0  0  0  0  0  0  0  0
   53.7660   77.5220   28.1530 C   0  0  0  0  0  0  0  0  0  0  0  0
   54.5940   76.8430   29.0500 C   0  0  0  0  0  0  0  0  0  0  0  0
   55.9230   77.2440   29.2260 C   0  0  0  0  0  0  0  0  0  0  0  0
   56.4630   78.3330   28.5230 C   0  0  0  0  0  0  0  0  0  0  0  0
   57.7960   78.6840   28.7550 N   0  0  0  0  0  0  0  0  0  0  0  0
   58.4260   79.8080   29.2800 C   0  0  0  0  0  0  0  0  0  0  0  0
   58.7590   80.8580   28.5250 N   0  0  0  0  0  0  0  0  0  0  0  0
   59.3650   81.8900   29.1390 C   0  0  0  0  0  0  0  0  0  0  0  0
   59.6510   81.9320   30.4870 C   0  0  0  0  0  0  0  0  0  0  0  0
   59.2730   80.8080   31.2030 C   0  0  0  0  0  0  0  0  0  0  0  0
   58.6650   79.7530   30.6010 N   0  0  0  0  0  0  0  0  0  0  0  0
   59.5120   80.6310   32.6960 C   0  0  0  0  0  0  0  0  0  0  0  0
   60.5700   81.4380   33.3320 N   0  0  0  0  0  0  0  0  0  0  0  0
   61.2470   80.7550   34.3520 N   0  0  0  0  0  0  0  0  0  0  0  0
   60.6640   80.4040   35.6220 C   0  0  0  0  0  0  0  0  0  0  0  0
   61.7540   79.5730   36.2700 C   0  0  0  0  0  0  0  0  0  0  0  0
   63.0440   80.1990   35.7490 C   0  0  0  0  0  0  0  0  0  0  0  0
   62.6480   80.7460   34.3960 C   0  0  0  0  0  0  0  0  0  0  0  0
   63.4340   81.1440   33.5500 O   0  0  0  0  0  0  0  0  0  0  0  0
   60.1690   82.7970   33.6740 C   0  0  0  0  0  0  0  0  0  0  0  0
   59.6790   83.5590   32.4200 C   0  0  0  0  0  0  0  0  0  0  0  0
   60.3190   83.1230   31.0980 C   0  0  0  0  0  0  0  0  0  0  0  0
   55.6160   79.0140   27.6440 C   0  0  0  0  0  0  0  0  0  0  0  0
   54.2850   78.6190   27.4620 C   0  0  0  0  0  0  0  0  0  0  0  0
   51.8679   76.9912   28.9718 H   0  0  0  0  0  0  0  0  0  0  0  0
   51.7959   77.9037   27.4262 H   0  0  0  0  0  0  0  0  0  0  0  0
   52.2797   76.1738   27.4262 H   0  0  0  0  0  0  0  0  0  0  0  0
   54.1995   75.9893   29.6206 H   0  0  0  0  0  0  0  0  0  0  0  0
   56.5606   76.6924   29.9326 H   0  0  0  0  0  0  0  0  0  0  0  0
   58.5010   78.0330   28.4450 H   0  0  0  0  0  0  0  0  0  0  0  0
   59.6511   82.7571   28.5255 H   0  0  0  0  0  0  0  0  0  0  0  0
   58.5679   80.8687   33.2081 H   0  0  0  0  0  0  0  0  0  0  0  0
   59.8634   79.5934   32.7951 H   0  0  0  0  0  0  0  0  0  0  0  0
   60.4418   81.3013   36.2182 H   0  0  0  0  0  0  0  0  0  0  0  0
   59.7054   79.8722   35.5305 H   0  0  0  0  0  0  0  0  0  0  0  0
   61.6998   79.6413   37.3665 H   0  0  0  0  0  0  0  0  0  0  0  0
   61.6728   78.5024   36.0309 H   0  0  0  0  0  0  0  0  0  0  0  0
   63.3867   81.0052   36.4143 H   0  0  0  0  0  0  0  0  0  0  0  0
   63.8771   79.4827   35.6950 H   0  0  0  0  0  0  0  0  0  0  0  0
   59.3548   82.7574   34.4126 H   0  0  0  0  0  0  0  0  0  0  0  0
   61.0389   83.3264   34.0899 H   0  0  0  0  0  0  0  0  0  0  0  0
   58.5921   83.4123   32.3362 H   0  0  0  0  0  0  0  0  0  0  0  0
   59.9715   84.6090   32.5682 H   0  0  0  0  0  0  0  0  0  0  0  0
   60.2596   83.9605   30.3874 H   0  0  0  0  0  0  0  0  0  0  0  0
   61.3595   82.8399   31.3151 H   0  0  0  0  0  0  0  0  0  0  0  0
   56.0030   79.8779   27.0838 H   0  0  0  0  0  0  0  0  0  0  0  0
   53.6414   79.1787   26.7674 H   0  0  0  0  0  0  0  0  0  0  0  0
  1  2  1  0
  2  3  1  0
  3  4  2  0
  4  5  1  0
  5  6  1  0
  6  7  1  0
  7  8  2  0
  8  9  1  0
  9 10  2  0
 10 11  1  0
 11 12  2  0
 11 13  1  0
 13 14  1  0
 14 15  1  0
 15 16  1  0
 16 17  1  0
 17 18  1  0
 18 19  1  0
 19 20  2  0
 14 21  1  0
 21 22  1  0
 22 23  1  0
  5 24  2  0
 24 25  1  0
 25  2  2  0
 12  7  1  0
 19 15  1  0
 23 10  1  0
  1 26  1  0
  1 27  1  0
  1 28  1  0
  3 29  1  0
  4 30  1  0
  6 31  1  0
  9 32  1  0
 13 33  1  0
 13 34  1  0
 16 35  1  0
 16 36  1  0
 17 37  1  0
 17 38  1  0
 18 39  1  0
 18 40  1  0
 21 41  1  0
 21 42  1  0
 22 43  1  0
 22 44  1  0
 23 45  1  0
 23 46  1  0
 24 47  1  0
 25 48  1  0
M  END
>  <meeko>  (1) 
{"is_sidechain": false}

>  <smiles>  (1) 
Cc1ccc(Nc2ncc3c(n2)CN(N2CCCC2=O)CCC3)cc1

>  <vina_score>  (1) 
-6.745

>  <job_id>  (1) 
c50a80d5dd3fb3d3

$$$$
