
     RDKit          3D

 37 38  0  0  0  0  0  0  0  0999 V2000
   52.9340   77.9480   26.8870 C   0  0  0  0  0  0  0  0  0  0  0  0
   54.0030   77.7280   27.9250 C   0  0  0  0  0  0  0  0  0  0  0  0
   53.9100   76.5850   28.7400 C   0  0  0  0  0  0  0  0  0  0  0  0
   54.8660   76.3240   29.7180 C   0  0  0  0  0  0  0  0  0  0  0  0
   55.9260   77.2040   29.8940 C   0  0  0  0  0  0  0  0  0  0  0  0
   56.0330   78.3450   29.0920 C   0  0  0  0  0  0  0  0  0  0  0  0
   55.0820   78.6230   28.1030 C   0  0  0  0  0  0  0  0  0  0  0  0
   55.1620   79.7690   27.2760 N   0  0  0  0  0  0  0  0  0  0  0  0
   56.2890   80.4960   26.9250 C   0  0  0  0  0  0  0  0  0  0  0  0
   57.4440   80.2780   27.2700 O   0  0  0  0  0  0  0  0  0  0  0  0
   55.9280   81.6560   26.0150 C   0  0  0  0  0  0  0  0  0  0  0  0
   54.4890   82.1180   26.2330 C   0  0  0  0  0  0  0  0  0  0  0  0
   53.5880   81.8890   25.0430 C   0  0  0  0  0  0  0  0  0  0  0  0
   52.9300   82.9780   24.4700 C   0  0  0  0  0  0  0  0  0  0  0  0
   52.0980   82.7670   23.3710 C   0  0  0  0  0  0  0  0  0  0  0  0
   51.9400   81.4760   22.8680 C   0  0  0  0  0  0  0  0  0  0  0  0
   51.0620   81.2460   21.7080 C   0  0  0  0  0  0  0  0  0  0  0  0
   51.4330   80.9830   20.5790 O   0  0  0  0  0  0  0  0  0  0  0  0
   49.7570   81.3560   22.0080 O   0  0  0  0  0  0  0  0  0  0  0  0
   52.6290   80.4490   23.4950 C   0  0  0  0  0  0  0  0  0  0  0  0
   53.4450   80.6280   24.5670 N   0  0  0  0  0  0  0  0  0  0  0  0
   51.9737   78.1456   27.3858 H   0  0  0  0  0  0  0  0  0  0  0  0
   53.2048   78.8092   26.2586 H   0  0  0  0  0  0  0  0  0  0  0  0
   52.8427   77.0498   26.2586 H   0  0  0  0  0  0  0  0  0  0  0  0
   53.0703   75.8878   28.6026 H   0  0  0  0  0  0  0  0  0  0  0  0
   54.7822   75.4260   30.3477 H   0  0  0  0  0  0  0  0  0  0  0  0
   56.6833   77.0032   30.6661 H   0  0  0  0  0  0  0  0  0  0  0  0
   56.8772   79.0343   29.2407 H   0  0  0  0  0  0  0  0  0  0  0  0
   54.2880   80.1020   26.8920 H   0  0  0  0  0  0  0  0  0  0  0  0
   56.6073   82.4961   26.2217 H   0  0  0  0  0  0  0  0  0  0  0  0
   56.0254   81.3176   24.9729 H   0  0  0  0  0  0  0  0  0  0  0  0
   54.0751   81.5694   27.0919 H   0  0  0  0  0  0  0  0  0  0  0  0
   54.5238   83.2041   26.4039 H   0  0  0  0  0  0  0  0  0  0  0  0
   53.0658   83.9897   24.8799 H   0  0  0  0  0  0  0  0  0  0  0  0
   51.5706   83.6121   22.9046 H   0  0  0  0  0  0  0  0  0  0  0  0
   49.4310   80.4300   21.9950 H   0  0  0  0  0  0  0  0  0  0  0  0
   52.5080   79.4290   23.1015 H   0  0  0  0  0  0  0  0  0  0  0  0
  1  2  1  0
  2  3  2  0
  3  4  1  0
  4  5  2  0
  5  6  1  0
  6  7  2  0
  7  8  1  0
  8  9  1  0
  9 10  2  0
  9 11  1  0
 11 12  1  0
 12 13  1  0
 13 14  2  0
 14 15  1  0
 15 16  2  0
 16 17  1  0
 17 18  2  0
 17 19  1  0
 16 20  1  0
 20 21  2  0
  7  2  1  0
 21 13  1  0
  1 22  1  0
  1 23  1  0
  1 24  1  0
  3 25  1  0
  4 26  1  0
  5 27  1  0
  6 28  1  0
  8 29  1  0
 11 30  1  0
 11 31  1  0
 12 32  1  0
 12 33  1  0
 14 34  1  0
 15 35  1  0
 19 36  1  0
 20 37  1  0
M  END
>  <meeko>  (1) 
{"is_sidechain": false}

>  <smiles>  (1) 
Cc1ccccc1NC(=O)CCc1ccc(C(=O)O)cn1

>  <vina_score>  (1) 
-7.832

>  <job_id>  (1) 
c5142808416ec1a1

$$$$
