
     RDKit          3D

 43 44  0  0  0  0  0  0  0  0999 V2000
   53.0080   81.3010   23.9560 C   0  0  0  0  0  0  0  0  0  0  0  0
   53.2950   80.0880   24.7660 C   0  0  0  0  0  0  0  0  0  0  0  0
   52.9320   78.8760   24.4000 N   0  0  0  0  0  0  0  0  0  0  0  0
   53.3420   78.0420   25.3960 C   0  0  0  0  0  0  0  0  0  0  0  0
   54.0020   78.7320   26.3910 C   0  0  0  0  0  0  0  0  0  0  0  0
   54.5960   78.2060   27.6110 C   0  0  0  0  0  0  0  0  0  0  0  0
   55.5480   79.0070   28.1420 N   0  0  0  0  0  0  0  0  0  0  0  0
   56.1230   78.5860   29.2790 C   0  0  0  0  0  0  0  0  0  0  0  0
   57.0910   79.4450   29.7700 N   0  0  0  0  0  0  0  0  0  0  0  0
   58.2310   79.8550   29.1170 C   0  0  0  0  0  0  0  0  0  0  0  0
   58.5600   79.5410   27.9760 O   0  0  0  0  0  0  0  0  0  0  0  0
   59.0650   80.8560   29.9470 C   0  0  0  0  0  0  0  0  0  0  0  0
   59.1350   80.3630   31.3940 C   0  0  0  0  0  0  0  0  0  0  0  0
   58.4640   82.2600   29.8980 C   0  0  0  0  0  0  0  0  0  0  0  0
   60.4040   80.9110   29.4590 O   0  0  0  0  0  0  0  0  0  0  0  0
   61.2270   81.7320   30.2700 F   0  0  0  0  0  0  0  0  0  0  0  0
   55.8190   77.4380   29.8960 N   0  0  0  0  0  0  0  0  0  0  0  0
   54.8550   76.6770   29.3400 C   0  0  0  0  0  0  0  0  0  0  0  0
   54.2030   77.0190   28.1860 C   0  0  0  0  0  0  0  0  0  0  0  0
   53.2540   76.2330   27.6640 F   0  0  0  0  0  0  0  0  0  0  0  0
   53.9370   80.0620   25.9920 N   0  0  0  0  0  0  0  0  0  0  0  0
   54.4170   81.2010   26.7780 C   0  0  0  0  0  0  0  0  0  0  0  0
   53.3100   82.1720   27.1910 C   0  0  0  0  0  0  0  0  0  0  0  0
   55.5890   81.9240   26.1130 C   0  0  0  0  0  0  0  0  0  0  0  0
   52.8071   82.1501   24.6258 H   0  0  0  0  0  0  0  0  0  0  0  0
   53.8763   81.5320   23.3214 H   0  0  0  0  0  0  0  0  0  0  0  0
   52.1283   81.1184   23.3214 H   0  0  0  0  0  0  0  0  0  0  0  0
   53.1686   76.9558   25.4054 H   0  0  0  0  0  0  0  0  0  0  0  0
   56.9570   79.6900   30.7410 H   0  0  0  0  0  0  0  0  0  0  0  0
   59.0139   81.2158   32.0782 H   0  0  0  0  0  0  0  0  0  0  0  0
   58.3315   79.6332   31.5720 H   0  0  0  0  0  0  0  0  0  0  0  0
   60.1099   79.8857   31.5720 H   0  0  0  0  0  0  0  0  0  0  0  0
   58.3067   82.6275   30.9228 H   0  0  0  0  0  0  0  0  0  0  0  0
   59.1520   82.9351   29.3680 H   0  0  0  0  0  0  0  0  0  0  0  0
   57.5006   82.2282   29.3680 H   0  0  0  0  0  0  0  0  0  0  0  0
   54.5790   75.7357   29.8378 H   0  0  0  0  0  0  0  0  0  0  0  0
   54.7967   80.7614   27.7121 H   0  0  0  0  0  0  0  0  0  0  0  0
   53.2551   82.2201   28.2886 H   0  0  0  0  0  0  0  0  0  0  0  0
   53.5316   83.1723   26.7907 H   0  0  0  0  0  0  0  0  0  0  0  0
   52.3471   81.8219   26.7907 H   0  0  0  0  0  0  0  0  0  0  0  0
   56.2538   82.3341   26.8875 H   0  0  0  0  0  0  0  0  0  0  0  0
   56.1497   81.2146   25.4866 H   0  0  0  0  0  0  0  0  0  0  0  0
   55.2065   82.7434   25.4866 H   0  0  0  0  0  0  0  0  0  0  0  0
  1  2  1  0
  2  3  2  0
  3  4  1  0
  4  5  2  0
  5  6  1  0
  6  7  2  0
  7  8  1  0
  8  9  1  0
  9 10  1  0
 10 11  2  0
 10 12  1  0
 12 13  1  0
 12 14  1  0
 12 15  1  0
 15 16  1  0
  8 17  2  0
 17 18  1  0
 18 19  2  0
 19 20  1  0
  5 21  1  0
 21 22  1  0
 22 23  1  0
 22 24  1  0
 21  2  1  0
 19  6  1  0
  1 25  1  0
  1 26  1  0
  1 27  1  0
  4 28  1  0
  9 29  1  0
 13 30  1  0
 13 31  1  0
 13 32  1  0
 14 33  1  0
 14 34  1  0
 14 35  1  0
 18 36  1  0
 22 37  1  0
 23 38  1  0
 23 39  1  0
 23 40  1  0
 24 41  1  0
 24 42  1  0
 24 43  1  0
M  END
>  <meeko>  (1) 
{"is_sidechain": false}

>  <smiles>  (1) 
Cc1ncc(-c2nc(NC(=O)C(C)(C)OF)ncc2F)n1C(C)C

>  <vina_score>  (1) 
-7.352

>  <job_id>  (1) 
c5552d96062d8b50

$$$$
