
     RDKit          3D

 51 53  0  0  0  0  0  0  0  0999 V2000
   65.2880   85.8550   28.0300 C   0  0  0  0  0  0  0  0  0  0  0  0
   66.0950   84.7280   28.3510 O   0  0  0  0  0  0  0  0  0  0  0  0
   66.1180   84.4580   29.7500 C   0  0  0  0  0  0  0  0  0  0  0  0
   64.9090   83.7890   30.1530 N   0  0  0  0  0  0  0  0  0  0  0  0
   64.9650   82.6240   31.3590 S   0  0  0  0  0  0  0  0  0  0  0  0
   66.0160   83.2120   32.2970 N   0  0  0  0  0  0  0  0  0  0  0  0
   65.0670   81.3710   30.6490 O   0  0  0  0  0  0  0  0  0  0  0  0
   63.4130   82.6490   32.2120 C   0  0  0  0  0  0  0  0  0  0  0  0
   63.3480   83.1770   33.5030 C   0  0  0  0  0  0  0  0  0  0  0  0
   62.1390   83.1860   34.2040 C   0  0  0  0  0  0  0  0  0  0  0  0
   61.0140   82.6470   33.5660 C   0  0  0  0  0  0  0  0  0  0  0  0
   59.7120   82.5320   34.0100 N   0  0  0  0  0  0  0  0  0  0  0  0
   58.9280   81.9480   33.0530 C   0  0  0  0  0  0  0  0  0  0  0  0
   57.6340   81.7580   33.2730 O   0  0  0  0  0  0  0  0  0  0  0  0
   59.7430   81.6620   31.9840 C   0  0  0  0  0  0  0  0  0  0  0  0
   59.3100   81.0790   30.7900 N   0  0  0  0  0  0  0  0  0  0  0  0
   58.8230   79.9450   30.9790 N   0  0  0  0  0  0  0  0  0  0  0  0
   58.4280   79.3500   29.8280 N   0  0  0  0  0  0  0  0  0  0  0  0
   57.4820   79.8820   29.0260 N   0  0  0  0  0  0  0  0  0  0  0  0
   56.9030   78.9590   28.4190 N   0  0  0  0  0  0  0  0  0  0  0  0
   55.9190   79.4930   27.5700 C   0  0  0  0  0  0  0  0  0  0  0  0
   56.2380   80.5580   26.7170 C   0  0  0  0  0  0  0  0  0  0  0  0
   55.2780   81.0870   25.8510 C   0  0  0  0  0  0  0  0  0  0  0  0
   53.9900   80.5450   25.8390 C   0  0  0  0  0  0  0  0  0  0  0  0
   52.7770   81.2170   24.7330 S   0  0  0  0  0  0  0  0  0  0  0  0
   53.3100   80.6270   23.2490 N   0  0  0  0  0  0  0  0  0  0  0  0
   51.5050   80.6060   25.0290 O   0  0  0  0  0  0  0  0  0  0  0  0
   52.9590   82.6490   24.6690 O   0  0  0  0  0  0  0  0  0  0  0  0
   53.6610   79.4680   26.6660 C   0  0  0  0  0  0  0  0  0  0  0  0
   54.6280   78.9460   27.5280 C   0  0  0  0  0  0  0  0  0  0  0  0
   61.0600   82.1060   32.2770 C   0  0  0  0  0  0  0  0  0  0  0  0
   62.2840   82.1080   31.5810 C   0  0  0  0  0  0  0  0  0  0  0  0
   64.9438   86.3357   28.9576 H   0  0  0  0  0  0  0  0  0  0  0  0
   65.8784   86.5732   27.4421 H   0  0  0  0  0  0  0  0  0  0  0  0
   64.4179   85.5274   27.4421 H   0  0  0  0  0  0  0  0  0  0  0  0
   66.9812   83.8165   29.9810 H   0  0  0  0  0  0  0  0  0  0  0  0
   66.1972   85.4100   30.2953 H   0  0  0  0  0  0  0  0  0  0  0  0
   64.2560   84.4870   30.4890 H   0  0  0  0  0  0  0  0  0  0  0  0
   66.1200   82.6340   33.1310 H   0  0  0  0  0  0  0  0  0  0  0  0
   64.2543   83.5885   33.9713 H   0  0  0  0  0  0  0  0  0  0  0  0
   62.0730   83.6014   35.2204 H   0  0  0  0  0  0  0  0  0  0  0  0
   59.3700   82.8420   34.9080 H   0  0  0  0  0  0  0  0  0  0  0  0
   57.5400   81.6040   34.2330 H   0  0  0  0  0  0  0  0  0  0  0  0
   59.1260   78.7890   29.3540 H   0  0  0  0  0  0  0  0  0  0  0  0
   57.2533   80.9812   26.7294 H   0  0  0  0  0  0  0  0  0  0  0  0
   55.5338   81.9234   25.1839 H   0  0  0  0  0  0  0  0  0  0  0  0
   52.5580   80.7230   22.5640 H   0  0  0  0  0  0  0  0  0  0  0  0
   54.1770   81.0580   22.9270 H   0  0  0  0  0  0  0  0  0  0  0  0
   52.6500   79.0353   26.6385 H   0  0  0  0  0  0  0  0  0  0  0  0
   54.3747   78.0974   28.1805 H   0  0  0  0  0  0  0  0  0  0  0  0
   62.3529   81.6940   30.5642 H   0  0  0  0  0  0  0  0  0  0  0  0
  1  2  1  0
  2  3  1  0
  3  4  1  0
  4  5  1  0
  5  6  2  0
  5  7  2  0
  5  8  1  0
  8  9  2  0
  9 10  1  0
 10 11  2  0
 11 12  1  0
 12 13  1  0
 13 14  1  0
 13 15  2  0
 15 16  1  0
 16 17  2  3
 17 18  1  0
 18 19  1  0
 19 20  2  3
 20 21  1  0
 21 22  1  0
 22 23  2  0
 23 24  1  0
 24 25  1  0
 25 26  1  0
 25 27  2  0
 25 28  2  0
 24 29  2  0
 29 30  1  0
 15 31  1  0
 31 32  2  0
 32  8  1  0
 31 11  1  0
 30 21  2  0
  1 33  1  0
  1 34  1  0
  1 35  1  0
  3 36  1  0
  3 37  1  0
  4 38  1  0
  6 39  1  0
  9 40  1  0
 10 41  1  0
 12 42  1  0
 14 43  1  0
 18 44  1  0
 22 45  1  0
 23 46  1  0
 26 47  1  0
 26 48  1  0
 29 49  1  0
 30 50  1  0
 32 51  1  0
M  END
>  <meeko>  (1) 
{"is_sidechain": false}

>  <smiles>  (1) 
COCNS(=N)(=O)c1ccc2[nH]c(O)c(N=NNN=Nc3ccc(S(N)(=O)=O)cc3)c2c1

>  <vina_score>  (1) 
-8.129

>  <job_id>  (1) 
c584204522e6338b

$$$$
