
     RDKit          3D

 48 51  0  0  0  0  0  0  0  0999 V2000
   52.2260   75.3570   26.4770 C   0  0  0  0  0  0  0  0  0  0  0  0
   52.1660   76.2150   27.7150 C   0  0  0  0  0  0  0  0  0  0  0  0
   51.1380   76.2570   28.3910 O   0  0  0  0  0  0  0  0  0  0  0  0
   53.2990   76.9500   28.0400 N   0  0  0  0  0  0  0  0  0  0  0  0
   54.0340   76.8100   29.2980 C   0  0  0  0  0  0  0  0  0  0  0  0
   55.5260   77.0210   29.0880 C   0  0  0  0  0  0  0  0  0  0  0  0
   55.7910   78.3150   28.3740 C   0  0  0  0  0  0  0  0  0  0  0  0
   57.0050   78.8840   28.5840 N   0  0  0  0  0  0  0  0  0  0  0  0
   57.3020   80.0280   27.9340 C   0  0  0  0  0  0  0  0  0  0  0  0
   58.5610   80.6120   28.1640 N   0  0  0  0  0  0  0  0  0  0  0  0
   58.9180   81.1540   29.4110 C   0  0  0  0  0  0  0  0  0  0  0  0
   58.9340   80.3730   30.5580 C   0  0  0  0  0  0  0  0  0  0  0  0
   59.2790   80.9560   31.7820 C   0  0  0  0  0  0  0  0  0  0  0  0
   59.5950   82.3140   31.8710 C   0  0  0  0  0  0  0  0  0  0  0  0
   59.9550   82.9430   33.0660 N   0  0  0  0  0  0  0  0  0  0  0  0
   60.5370   82.0820   34.1110 C   0  0  0  0  0  0  0  0  0  0  0  0
   61.2600   82.8450   35.2070 C   0  0  0  0  0  0  0  0  0  0  0  0
   61.2590   84.1220   35.4110 N   0  0  0  0  0  0  0  0  0  0  0  0
   60.4350   84.8970   34.4690 C   0  0  0  0  0  0  0  0  0  0  0  0
   60.4550   84.3230   33.0480 C   0  0  0  0  0  0  0  0  0  0  0  0
   59.5540   82.9940   30.6460 C   0  0  0  0  0  0  0  0  0  0  0  0
   59.2200   82.4630   29.4400 N   0  0  0  0  0  0  0  0  0  0  0  0
   56.3970   80.6280   27.0620 C   0  0  0  0  0  0  0  0  0  0  0  0
   55.1560   80.0330   26.8500 C   0  0  0  0  0  0  0  0  0  0  0  0
   54.8350   78.8480   27.5120 C   0  0  0  0  0  0  0  0  0  0  0  0
   53.4930   78.2000   27.3090 C   0  0  0  0  0  0  0  0  0  0  0  0
   52.3000   74.2987   26.7676 H   0  0  0  0  0  0  0  0  0  0  0  0
   51.3149   75.5105   25.8800 H   0  0  0  0  0  0  0  0  0  0  0  0
   53.1068   75.6358   25.8800 H   0  0  0  0  0  0  0  0  0  0  0  0
   53.6632   77.5567   30.0156 H   0  0  0  0  0  0  0  0  0  0  0  0
   53.8763   75.7917   29.6829 H   0  0  0  0  0  0  0  0  0  0  0  0
   56.0278   77.0408   30.0667 H   0  0  0  0  0  0  0  0  0  0  0  0
   55.9136   76.1955   28.4729 H   0  0  0  0  0  0  0  0  0  0  0  0
   59.2850   79.9180   27.9950 H   0  0  0  0  0  0  0  0  0  0  0  0
   58.6776   79.3046   30.5052 H   0  0  0  0  0  0  0  0  0  0  0  0
   59.3019   80.3348   32.6895 H   0  0  0  0  0  0  0  0  0  0  0  0
   59.7251   81.5004   34.5720 H   0  0  0  0  0  0  0  0  0  0  0  0
   61.2866   81.4453   33.6183 H   0  0  0  0  0  0  0  0  0  0  0  0
   61.8537   82.2412   35.9091 H   0  0  0  0  0  0  0  0  0  0  0  0
   59.3965   84.9005   34.8316 H   0  0  0  0  0  0  0  0  0  0  0  0
   60.8550   85.9125   34.4210 H   0  0  0  0  0  0  0  0  0  0  0  0
   59.8143   84.9358   32.3968 H   0  0  0  0  0  0  0  0  0  0  0  0
   61.4862   84.3324   32.6653 H   0  0  0  0  0  0  0  0  0  0  0  0
   59.8179   84.0618   30.6621 H   0  0  0  0  0  0  0  0  0  0  0  0
   56.6600   81.5630   26.5456 H   0  0  0  0  0  0  0  0  0  0  0  0
   54.4318   80.4956   26.1633 H   0  0  0  0  0  0  0  0  0  0  0  0
   52.7178   78.9098   27.6333 H   0  0  0  0  0  0  0  0  0  0  0  0
   53.4301   77.9466   26.2404 H   0  0  0  0  0  0  0  0  0  0  0  0
  1  2  1  0
  2  3  2  0
  2  4  1  0
  4  5  1  0
  5  6  1  0
  6  7  1  0
  7  8  1  0
  8  9  2  0
  9 10  1  0
 10 11  1  0
 11 12  2  0
 12 13  1  0
 13 14  2  0
 14 15  1  0
 15 16  1  0
 16 17  1  0
 17 18  2  0
 18 19  1  0
 19 20  1  0
 14 21  1  0
 21 22  2  0
  9 23  1  0
 23 24  2  0
 24 25  1  0
 25 26  1  0
 26  4  1  0
 25  7  2  0
 22 11  1  0
 20 15  1  0
  1 27  1  0
  1 28  1  0
  1 29  1  0
  5 30  1  0
  5 31  1  0
  6 32  1  0
  6 33  1  0
 10 34  1  0
 12 35  1  0
 13 36  1  0
 16 37  1  0
 16 38  1  0
 17 39  1  0
 19 40  1  0
 19 41  1  0
 20 42  1  0
 20 43  1  0
 21 44  1  0
 23 45  1  0
 24 46  1  0
 26 47  1  0
 26 48  1  0
M  END
>  <meeko>  (1) 
{"is_sidechain": false}

>  <smiles>  (1) 
CC(=O)N1CCc2nc(Nc3ccc(N4CC=NCC4)cn3)ccc2C1

>  <vina_score>  (1) 
-8.503

>  <job_id>  (1) 
c64471fc296be17d

$$$$
