
     RDKit          3D

 57 60  0  0  0  0  0  0  0  0999 V2000
   64.5670   86.5390   28.7640 C   0  0  0  0  0  0  0  0  0  0  0  0
   65.1200   85.1500   29.0210 C   0  0  0  0  0  0  0  0  0  0  0  0
   64.0500   84.2320   29.2980 O   0  0  0  0  0  0  0  0  0  0  0  0
   63.8120   83.8840   30.5930 C   0  0  0  0  0  0  0  0  0  0  0  0
   64.6380   83.1410   31.2540 N   0  0  0  0  0  0  0  0  0  0  0  0
   64.3280   82.7430   32.5220 C   0  0  0  0  0  0  0  0  0  0  0  0
   65.0060   83.5180   33.6370 C   0  0  0  0  0  0  0  0  0  0  0  0
   66.0320   84.4840   33.0720 C   0  0  0  0  0  0  0  0  0  0  0  0
   63.4290   81.8150   32.6380 N   0  0  0  0  0  0  0  0  0  0  0  0
   62.9800   81.4360   33.9100 C   0  0  0  0  0  0  0  0  0  0  0  0
   62.1420   82.2710   34.6580 C   0  0  0  0  0  0  0  0  0  0  0  0
   61.7280   81.9000   35.9400 C   0  0  0  0  0  0  0  0  0  0  0  0
   62.1640   80.6860   36.4760 C   0  0  0  0  0  0  0  0  0  0  0  0
   61.6610   80.2050   38.1070 S   0  0  0  0  0  0  0  0  0  0  0  0
   60.0600   80.7260   38.1310 N   0  0  0  0  0  0  0  0  0  0  0  0
   62.3520   81.0360   39.0660 O   0  0  0  0  0  0  0  0  0  0  0  0
   61.6620   78.7640   38.1800 O   0  0  0  0  0  0  0  0  0  0  0  0
   63.0280   79.8570   35.7540 C   0  0  0  0  0  0  0  0  0  0  0  0
   63.4350   80.2400   34.4750 C   0  0  0  0  0  0  0  0  0  0  0  0
   62.5580   84.4270   31.0790 C   0  0  0  0  0  0  0  0  0  0  0  0
   62.3770   85.6170   31.7640 C   0  0  0  0  0  0  0  0  0  0  0  0
   63.2070   86.5500   32.2140 O   0  0  0  0  0  0  0  0  0  0  0  0
   61.0340   85.7980   31.9520 N   0  0  0  0  0  0  0  0  0  0  0  0
   60.3250   84.7420   31.4370 C   0  0  0  0  0  0  0  0  0  0  0  0
   58.9480   84.5020   31.4180 C   0  0  0  0  0  0  0  0  0  0  0  0
   58.5030   83.3290   30.7960 C   0  0  0  0  0  0  0  0  0  0  0  0
   59.3910   82.4200   30.2050 C   0  0  0  0  0  0  0  0  0  0  0  0
   58.8890   81.2100   29.5640 C   0  0  0  0  0  0  0  0  0  0  0  0
   58.9350   79.8570   29.8310 C   0  0  0  0  0  0  0  0  0  0  0  0
   58.2740   79.1520   28.8550 N   0  0  0  0  0  0  0  0  0  0  0  0
   57.8530   80.0900   28.0390 C   0  0  0  0  0  0  0  0  0  0  0  0
   58.1850   81.3600   28.3950 O   0  0  0  0  0  0  0  0  0  0  0  0
   60.7710   82.6980   30.2420 C   0  0  0  0  0  0  0  0  0  0  0  0
   61.2510   83.8710   30.8680 C   0  0  0  0  0  0  0  0  0  0  0  0
   64.3683   87.0380   29.7240 H   0  0  0  0  0  0  0  0  0  0  0  0
   65.3003   87.1253   28.1908 H   0  0  0  0  0  0  0  0  0  0  0  0
   63.6314   86.4609   28.1908 H   0  0  0  0  0  0  0  0  0  0  0  0
   65.6707   84.8082   28.1322 H   0  0  0  0  0  0  0  0  0  0  0  0
   65.7938   85.1876   29.8897 H   0  0  0  0  0  0  0  0  0  0  0  0
   64.2469   84.0841   34.1967 H   0  0  0  0  0  0  0  0  0  0  0  0
   65.5183   82.8066   34.3014 H   0  0  0  0  0  0  0  0  0  0  0  0
   66.5608   84.9819   33.8982 H   0  0  0  0  0  0  0  0  0  0  0  0
   66.7550   83.9311   32.4542 H   0  0  0  0  0  0  0  0  0  0  0  0
   65.5236   85.2389   32.4542 H   0  0  0  0  0  0  0  0  0  0  0  0
   61.8062   83.2283   34.2327 H   0  0  0  0  0  0  0  0  0  0  0  0
   61.0651   82.5576   36.5215 H   0  0  0  0  0  0  0  0  0  0  0  0
   59.8390   81.0680   39.0680 H   0  0  0  0  0  0  0  0  0  0  0  0
   59.8460   81.4150   37.4110 H   0  0  0  0  0  0  0  0  0  0  0  0
   63.3837   78.9118   36.1899 H   0  0  0  0  0  0  0  0  0  0  0  0
   64.1204   79.5949   33.9057 H   0  0  0  0  0  0  0  0  0  0  0  0
   63.6860   86.1930   32.9970 H   0  0  0  0  0  0  0  0  0  0  0  0
   60.6360   86.6050   32.4090 H   0  0  0  0  0  0  0  0  0  0  0  0
   58.2398   85.2088   31.8750 H   0  0  0  0  0  0  0  0  0  0  0  0
   57.4244   83.1147   30.7705 H   0  0  0  0  0  0  0  0  0  0  0  0
   59.4314   79.4063   30.7031 H   0  0  0  0  0  0  0  0  0  0  0  0
   57.2730   79.8650   27.1318 H   0  0  0  0  0  0  0  0  0  0  0  0
   61.4813   81.9966   29.7800 H   0  0  0  0  0  0  0  0  0  0  0  0
  1  2  1  0
  2  3  1  0
  3  4  1  0
  4  5  2  3
  5  6  1  0
  6  7  1  0
  7  8  1  0
  6  9  2  3
  9 10  1  0
 10 11  1  0
 11 12  2  0
 12 13  1  0
 13 14  1  0
 14 15  1  0
 14 16  2  0
 14 17  2  0
 13 18  2  0
 18 19  1  0
  4 20  1  0
 20 21  2  0
 21 22  1  0
 21 23  1  0
 23 24  1  0
 24 25  2  0
 25 26  1  0
 26 27  2  0
 27 28  1  0
 28 29  2  0
 29 30  1  0
 30 31  2  0
 31 32  1  0
 27 33  1  0
 33 34  2  0
 19 10  2  0
 34 20  1  0
 34 24  1  0
 32 28  1  0
  1 35  1  0
  1 36  1  0
  1 37  1  0
  2 38  1  0
  2 39  1  0
  7 40  1  0
  7 41  1  0
  8 42  1  0
  8 43  1  0
  8 44  1  0
 11 45  1  0
 12 46  1  0
 15 47  1  0
 15 48  1  0
 18 49  1  0
 19 50  1  0
 22 51  1  0
 23 52  1  0
 25 53  1  0
 26 54  1  0
 29 55  1  0
 31 56  1  0
 33 57  1  0
M  END
>  <meeko>  (1) 
{"is_sidechain": false}

>  <smiles>  (1) 
CCOC(=NC(CC)=Nc1ccc(S(N)(=O)=O)cc1)c1c(O)[nH]c2ccc(-c3cnco3)cc12

>  <vina_score>  (1) 
-5.822

>  <job_id>  (1) 
c65bc282f4cb85bb

$$$$
