
     RDKit          3D

 49 51  0  0  0  0  0  0  0  0999 V2000
   62.5860   84.1920   35.8000 C   0  0  0  0  0  0  0  0  0  0  0  0
   62.5750   82.9370   35.0530 N   0  0  0  0  0  0  0  0  0  0  0  0
   61.2600   82.2660   35.1240 C   0  0  0  0  0  0  0  0  0  0  0  0
   60.3220   82.4880   33.9140 C   0  0  0  0  0  0  0  0  0  0  0  0
   60.9770   82.1150   32.6480 N   0  0  0  0  0  0  0  0  0  0  0  0
   60.2480   81.6400   31.5710 C   0  0  0  0  0  0  0  0  0  0  0  0
   59.2940   80.6190   31.7100 C   0  0  0  0  0  0  0  0  0  0  0  0
   58.5600   80.1330   30.6190 C   0  0  0  0  0  0  0  0  0  0  0  0
   58.7750   80.6490   29.3420 C   0  0  0  0  0  0  0  0  0  0  0  0
   57.9790   80.1040   28.2090 C   0  0  0  0  0  0  0  0  0  0  0  0
   58.1790   78.9610   27.8150 O   0  0  0  0  0  0  0  0  0  0  0  0
   57.0590   80.9640   27.6450 N   0  0  0  0  0  0  0  0  0  0  0  0
   56.3100   80.6080   26.4530 C   0  0  0  0  0  0  0  0  0  0  0  0
   54.8030   80.4760   26.7180 C   0  0  0  0  0  0  0  0  0  0  0  0
   54.3090   79.1230   27.1770 C   0  0  0  0  0  0  0  0  0  0  0  0
   54.6560   78.5890   28.4250 C   0  0  0  0  0  0  0  0  0  0  0  0
   54.1640   77.3460   28.8300 C   0  0  0  0  0  0  0  0  0  0  0  0
   53.3060   76.6290   28.0020 C   0  0  0  0  0  0  0  0  0  0  0  0
   52.9350   77.1550   26.7670 C   0  0  0  0  0  0  0  0  0  0  0  0
   53.4290   78.3960   26.3600 C   0  0  0  0  0  0  0  0  0  0  0  0
   59.7080   81.6710   29.1720 C   0  0  0  0  0  0  0  0  0  0  0  0
   60.4320   82.1500   30.2740 C   0  0  0  0  0  0  0  0  0  0  0  0
   62.4500   82.1090   32.6540 C   0  0  0  0  0  0  0  0  0  0  0  0
   62.9890   83.1620   33.6520 C   0  0  0  0  0  0  0  0  0  0  0  0
   62.5841   83.9767   36.8787 H   0  0  0  0  0  0  0  0  0  0  0  0
   63.4892   84.7644   35.5419 H   0  0  0  0  0  0  0  0  0  0  0  0
   61.6930   84.7801   35.5419 H   0  0  0  0  0  0  0  0  0  0  0  0
   61.4381   81.1846   35.2185 H   0  0  0  0  0  0  0  0  0  0  0  0
   60.7440   82.7128   35.9866 H   0  0  0  0  0  0  0  0  0  0  0  0
   59.4191   81.8733   34.0441 H   0  0  0  0  0  0  0  0  0  0  0  0
   60.0647   83.5565   33.8680 H   0  0  0  0  0  0  0  0  0  0  0  0
   59.1171   80.1871   32.7061 H   0  0  0  0  0  0  0  0  0  0  0  0
   57.8115   79.3414   30.7712 H   0  0  0  0  0  0  0  0  0  0  0  0
   57.0640   81.9350   27.9230 H   0  0  0  0  0  0  0  0  0  0  0  0
   56.4668   81.3875   25.6929 H   0  0  0  0  0  0  0  0  0  0  0  0
   56.6746   79.6280   26.1115 H   0  0  0  0  0  0  0  0  0  0  0  0
   54.5358   81.2088   27.4936 H   0  0  0  0  0  0  0  0  0  0  0  0
   54.3229   80.6427   25.7424 H   0  0  0  0  0  0  0  0  0  0  0  0
   55.3227   79.1544   29.0927 H   0  0  0  0  0  0  0  0  0  0  0  0
   54.4558   76.9327   29.8067 H   0  0  0  0  0  0  0  0  0  0  0  0
   52.9217   75.6492   28.3220 H   0  0  0  0  0  0  0  0  0  0  0  0
   52.2529   76.5929   26.1122 H   0  0  0  0  0  0  0  0  0  0  0  0
   53.1248   78.8091   25.3870 H   0  0  0  0  0  0  0  0  0  0  0  0
   59.8764   82.1017   28.1739 H   0  0  0  0  0  0  0  0  0  0  0  0
   61.1687   82.9519   30.1179 H   0  0  0  0  0  0  0  0  0  0  0  0
   62.8073   81.1119   32.9508 H   0  0  0  0  0  0  0  0  0  0  0  0
   62.8123   82.3550   31.6449 H   0  0  0  0  0  0  0  0  0  0  0  0
   64.0881   83.1459   33.6103 H   0  0  0  0  0  0  0  0  0  0  0  0
   62.5650   84.1307   33.3489 H   0  0  0  0  0  0  0  0  0  0  0  0
  1  2  1  0
  2  3  1  0
  3  4  1  0
  4  5  1  0
  5  6  1  0
  6  7  1  0
  7  8  2  0
  8  9  1  0
  9 10  1  0
 10 11  2  0
 10 12  1  0
 12 13  1  0
 13 14  1  0
 14 15  1  0
 15 16  2  0
 16 17  1  0
 17 18  2  0
 18 19  1  0
 19 20  2  0
  9 21  2  0
 21 22  1  0
  5 23  1  0
 23 24  1  0
 24  2  1  0
 22  6  2  0
 20 15  1  0
  1 25  1  0
  1 26  1  0
  1 27  1  0
  3 28  1  0
  3 29  1  0
  4 30  1  0
  4 31  1  0
  7 32  1  0
  8 33  1  0
 12 34  1  0
 13 35  1  0
 13 36  1  0
 14 37  1  0
 14 38  1  0
 16 39  1  0
 17 40  1  0
 18 41  1  0
 19 42  1  0
 20 43  1  0
 21 44  1  0
 22 45  1  0
 23 46  1  0
 23 47  1  0
 24 48  1  0
 24 49  1  0
M  END
>  <meeko>  (1) 
{"is_sidechain": false}

>  <smiles>  (1) 
CN1CCN(c2ccc(C(=O)NCCc3ccccc3)cc2)CC1

>  <vina_score>  (1) 
-7.976

>  <job_id>  (1) 
c676f0d134343d59

$$$$
