
     RDKit          3D

 53 55  0  0  0  0  0  0  0  0999 V2000
   54.0600   84.2660   26.0520 C   0  0  0  0  0  0  0  0  0  0  0  0
   52.9460   83.2330   26.1240 C   0  0  0  0  0  0  0  0  0  0  0  0
   53.3220   81.9740   26.9120 C   0  0  0  0  0  0  0  0  0  0  0  0
   54.2820   80.9990   26.1950 C   0  0  0  0  0  0  0  0  0  0  0  0
   53.9190   80.7730   24.7210 C   0  0  0  0  0  0  0  0  0  0  0  0
   54.3920   79.7190   26.9420 N   0  0  0  0  0  0  0  0  0  0  0  0
   53.3530   78.8000   26.9110 C   0  0  0  0  0  0  0  0  0  0  0  0
   52.3080   78.9790   26.2860 O   0  0  0  0  0  0  0  0  0  0  0  0
   53.5150   77.5300   27.6790 C   0  0  0  0  0  0  0  0  0  0  0  0
   52.4230   76.5110   27.6000 C   0  0  0  0  0  0  0  0  0  0  0  0
   52.5040   75.4640   26.5200 C   0  0  0  0  0  0  0  0  0  0  0  0
   51.4820   76.5400   28.3930 O   0  0  0  0  0  0  0  0  0  0  0  0
   54.6090   77.2900   28.4320 C   0  0  0  0  0  0  0  0  0  0  0  0
   54.8090   76.0650   29.2910 C   0  0  0  0  0  0  0  0  0  0  0  0
   55.6770   78.3070   28.4340 C   0  0  0  0  0  0  0  0  0  0  0  0
   56.8660   78.1850   29.1260 C   0  0  0  0  0  0  0  0  0  0  0  0
   57.8420   79.1140   29.1450 N   0  0  0  0  0  0  0  0  0  0  0  0
   57.6400   80.2280   28.4390 C   0  0  0  0  0  0  0  0  0  0  0  0
   58.5740   81.2460   28.3950 N   0  0  0  0  0  0  0  0  0  0  0  0
   59.2610   81.9790   29.3420 C   0  0  0  0  0  0  0  0  0  0  0  0
   60.5750   81.7320   29.7270 C   0  0  0  0  0  0  0  0  0  0  0  0
   61.1800   82.5360   30.6980 C   0  0  0  0  0  0  0  0  0  0  0  0
   60.4580   83.5800   31.2690 C   0  0  0  0  0  0  0  0  0  0  0  0
   61.0860   84.4330   32.2920 C   0  0  0  0  0  0  0  0  0  0  0  0
   61.0350   85.6490   32.3310 O   0  0  0  0  0  0  0  0  0  0  0  0
   61.7500   83.7290   33.2240 O   0  0  0  0  0  0  0  0  0  0  0  0
   59.1570   83.7660   30.8370 C   0  0  0  0  0  0  0  0  0  0  0  0
   58.5550   82.9930   29.8950 N   0  0  0  0  0  0  0  0  0  0  0  0
   56.5260   80.4350   27.7260 N   0  0  0  0  0  0  0  0  0  0  0  0
   55.5630   79.4860   27.7180 C   0  0  0  0  0  0  0  0  0  0  0  0
   54.3646   84.5484   27.0706 H   0  0  0  0  0  0  0  0  0  0  0  0
   54.9213   83.8398   25.5167 H   0  0  0  0  0  0  0  0  0  0  0  0
   53.6999   85.1569   25.5167 H   0  0  0  0  0  0  0  0  0  0  0  0
   52.0732   83.6969   26.6068 H   0  0  0  0  0  0  0  0  0  0  0  0
   52.7359   82.9150   25.0921 H   0  0  0  0  0  0  0  0  0  0  0  0
   53.8011   82.2922   27.8496 H   0  0  0  0  0  0  0  0  0  0  0  0
   52.3835   81.4191   27.0578 H   0  0  0  0  0  0  0  0  0  0  0  0
   55.2731   81.4761   26.1869 H   0  0  0  0  0  0  0  0  0  0  0  0
   52.9867   80.1926   24.6578 H   0  0  0  0  0  0  0  0  0  0  0  0
   53.7804   81.7447   24.2244 H   0  0  0  0  0  0  0  0  0  0  0  0
   54.7297   80.2198   24.2244 H   0  0  0  0  0  0  0  0  0  0  0  0
   52.5811   74.4678   26.9801 H   0  0  0  0  0  0  0  0  0  0  0  0
   51.5996   75.5105   25.8956 H   0  0  0  0  0  0  0  0  0  0  0  0
   53.3905   75.6491   25.8956 H   0  0  0  0  0  0  0  0  0  0  0  0
   54.7625   76.3499   30.3524 H   0  0  0  0  0  0  0  0  0  0  0  0
   54.0187   75.3315   29.0733 H   0  0  0  0  0  0  0  0  0  0  0  0
   55.7915   75.6209   29.0733 H   0  0  0  0  0  0  0  0  0  0  0  0
   57.0280   77.2628   29.7034 H   0  0  0  0  0  0  0  0  0  0  0  0
   58.8080   81.5150   27.4520 H   0  0  0  0  0  0  0  0  0  0  0  0
   61.1372   80.9053   29.2681 H   0  0  0  0  0  0  0  0  0  0  0  0
   62.2180   82.3450   31.0080 H   0  0  0  0  0  0  0  0  0  0  0  0
   61.0830   83.0990   33.5700 H   0  0  0  0  0  0  0  0  0  0  0  0
   58.5759   84.5873   31.2818 H   0  0  0  0  0  0  0  0  0  0  0  0
  1  2  1  0
  2  3  1  0
  3  4  1  0
  4  5  1  0
  4  6  1  0
  6  7  1  0
  7  8  2  0
  7  9  1  0
  9 10  1  0
 10 11  1  0
 10 12  2  0
  9 13  2  0
 13 14  1  0
 13 15  1  0
 15 16  2  0
 16 17  1  0
 17 18  2  0
 18 19  1  0
 19 20  1  0
 20 21  2  0
 21 22  1  0
 22 23  2  0
 23 24  1  0
 24 25  2  0
 24 26  1  0
 23 27  1  0
 27 28  2  0
 18 29  1  0
 29 30  2  0
 30  6  1  0
 30 15  1  0
 28 20  1  0
  1 31  1  0
  1 32  1  0
  1 33  1  0
  2 34  1  0
  2 35  1  0
  3 36  1  0
  3 37  1  0
  4 38  1  0
  5 39  1  0
  5 40  1  0
  5 41  1  0
 11 42  1  0
 11 43  1  0
 11 44  1  0
 14 45  1  0
 14 46  1  0
 14 47  1  0
 16 48  1  0
 19 49  1  0
 21 50  1  0
 22 51  1  0
 26 52  1  0
 27 53  1  0
M  END
>  <meeko>  (1) 
{"is_sidechain": false}

>  <smiles>  (1) 
CCCC(C)n1c(=O)c(C(C)=O)c(C)c2cnc(Nc3ccc(C(=O)O)cn3)nc21

>  <vina_score>  (1) 
-8.165

>  <job_id>  (1) 
c678d978ae4f994c

$$$$
