
     RDKit          3D

 40 41  0  0  0  0  0  0  0  0999 V2000
   62.3710   84.3460   32.3930 C   0  0  0  0  0  0  0  0  0  0  0  0
   62.3010   83.5830   31.0720 C   0  0  0  0  0  0  0  0  0  0  0  0
   63.3280   82.4560   31.0200 C   0  0  0  0  0  0  0  0  0  0  0  0
   60.8870   83.0660   30.7990 C   0  0  0  0  0  0  0  0  0  0  0  0
   59.9270   83.8230   30.9130 O   0  0  0  0  0  0  0  0  0  0  0  0
   60.8360   81.7320   30.4340 N   0  0  0  0  0  0  0  0  0  0  0  0
   59.6930   80.9700   30.1150 C   0  0  0  0  0  0  0  0  0  0  0  0
   58.9350   80.2640   31.0470 C   0  0  0  0  0  0  0  0  0  0  0  0
   57.8120   79.5310   30.6440 C   0  0  0  0  0  0  0  0  0  0  0  0
   57.4150   79.4820   29.2990 C   0  0  0  0  0  0  0  0  0  0  0  0
   56.2340   78.7070   28.8800 C   0  0  0  0  0  0  0  0  0  0  0  0
   55.4210   79.1460   27.8190 C   0  0  0  0  0  0  0  0  0  0  0  0
   54.3000   78.4150   27.4160 C   0  0  0  0  0  0  0  0  0  0  0  0
   53.9770   77.2330   28.0840 C   0  0  0  0  0  0  0  0  0  0  0  0
   52.5600   76.2930   27.5820 S   0  0  0  0  0  0  0  0  0  0  0  0
   53.0200   74.7340   28.0200 N   0  0  0  0  0  0  0  0  0  0  0  0
   52.4650   76.3410   26.1420 O   0  0  0  0  0  0  0  0  0  0  0  0
   51.4540   76.6310   28.4480 O   0  0  0  0  0  0  0  0  0  0  0  0
   54.7710   76.7680   29.1320 C   0  0  0  0  0  0  0  0  0  0  0  0
   55.8910   77.5060   29.5270 C   0  0  0  0  0  0  0  0  0  0  0  0
   58.1830   80.1960   28.3690 C   0  0  0  0  0  0  0  0  0  0  0  0
   59.3070   80.9310   28.7710 C   0  0  0  0  0  0  0  0  0  0  0  0
   62.3058   83.6358   33.2305 H   0  0  0  0  0  0  0  0  0  0  0  0
   63.3232   84.8938   32.4500 H   0  0  0  0  0  0  0  0  0  0  0  0
   61.5344   85.0579   32.4500 H   0  0  0  0  0  0  0  0  0  0  0  0
   62.5531   84.2922   30.2699 H   0  0  0  0  0  0  0  0  0  0  0  0
   63.5986   82.1590   32.0440 H   0  0  0  0  0  0  0  0  0  0  0  0
   62.8991   81.5933   30.4893 H   0  0  0  0  0  0  0  0  0  0  0  0
   64.2268   82.8032   30.4893 H   0  0  0  0  0  0  0  0  0  0  0  0
   61.7160   81.2370   30.3930 H   0  0  0  0  0  0  0  0  0  0  0  0
   59.2214   80.2826   32.1089 H   0  0  0  0  0  0  0  0  0  0  0  0
   57.2286   78.9819   31.3978 H   0  0  0  0  0  0  0  0  0  0  0  0
   55.6721   80.0813   27.2973 H   0  0  0  0  0  0  0  0  0  0  0  0
   53.6781   78.7680   26.5801 H   0  0  0  0  0  0  0  0  0  0  0  0
   53.9980   74.5310   27.8170 H   0  0  0  0  0  0  0  0  0  0  0  0
   52.7980   74.5910   29.0060 H   0  0  0  0  0  0  0  0  0  0  0  0
   54.5181   75.8278   29.6439 H   0  0  0  0  0  0  0  0  0  0  0  0
   56.5139   77.1415   30.3571 H   0  0  0  0  0  0  0  0  0  0  0  0
   57.8991   80.1793   27.3064 H   0  0  0  0  0  0  0  0  0  0  0  0
   59.8921   81.4834   28.0210 H   0  0  0  0  0  0  0  0  0  0  0  0
  1  2  1  0
  2  3  1  0
  2  4  1  0
  4  5  2  0
  4  6  1  0
  6  7  1  0
  7  8  1  0
  8  9  2  0
  9 10  1  0
 10 11  1  0
 11 12  1  0
 12 13  2  0
 13 14  1  0
 14 15  1  0
 15 16  1  0
 15 17  2  0
 15 18  2  0
 14 19  2  0
 19 20  1  0
 10 21  2  0
 21 22  1  0
 22  7  2  0
 20 11  2  0
  1 23  1  0
  1 24  1  0
  1 25  1  0
  2 26  1  0
  3 27  1  0
  3 28  1  0
  3 29  1  0
  6 30  1  0
  8 31  1  0
  9 32  1  0
 12 33  1  0
 13 34  1  0
 16 35  1  0
 16 36  1  0
 19 37  1  0
 20 38  1  0
 21 39  1  0
 22 40  1  0
M  END
>  <meeko>  (1) 
{"is_sidechain": false}

>  <smiles>  (1) 
CC(C)C(=O)Nc1ccc(-c2ccc(S(N)(=O)=O)cc2)cc1

>  <vina_score>  (1) 
-7.964

>  <job_id>  (1) 
c6907bec6179463d

$$$$
