
     RDKit          3D

 34 35  0  0  0  0  0  0  0  0999 V2000
   61.6820   80.1700   34.0760 C   0  0  0  0  0  0  0  0  0  0  0  0
   62.5510   81.3280   33.6180 C   0  0  0  0  0  0  0  0  0  0  0  0
   61.9230   82.1120   32.4780 C   0  0  0  0  0  0  0  0  0  0  0  0
   62.2280   83.2700   32.2270 O   0  0  0  0  0  0  0  0  0  0  0  0
   60.9480   81.3710   31.8270 N   0  0  0  0  0  0  0  0  0  0  0  0
   60.3370   81.7290   30.6390 C   0  0  0  0  0  0  0  0  0  0  0  0
   60.6850   82.6360   29.8950 O   0  0  0  0  0  0  0  0  0  0  0  0
   59.2110   80.8520   30.2140 C   0  0  0  0  0  0  0  0  0  0  0  0
   58.4370   80.2300   31.2000 C   0  0  0  0  0  0  0  0  0  0  0  0
   57.3710   79.3970   30.8420 C   0  0  0  0  0  0  0  0  0  0  0  0
   57.0590   79.1540   29.4930 C   0  0  0  0  0  0  0  0  0  0  0  0
   55.9380   78.2720   29.1240 C   0  0  0  0  0  0  0  0  0  0  0  0
   54.8570   78.7520   28.3640 C   0  0  0  0  0  0  0  0  0  0  0  0
   53.7960   77.9160   28.0050 C   0  0  0  0  0  0  0  0  0  0  0  0
   53.7960   76.5820   28.3990 C   0  0  0  0  0  0  0  0  0  0  0  0
   54.8560   76.0830   29.1520 C   0  0  0  0  0  0  0  0  0  0  0  0
   55.9150   76.9210   29.5110 C   0  0  0  0  0  0  0  0  0  0  0  0
   57.8640   79.7770   28.5250 C   0  0  0  0  0  0  0  0  0  0  0  0
   57.6320   79.5740   27.2190 F   0  0  0  0  0  0  0  0  0  0  0  0
   58.9290   80.6110   28.8680 C   0  0  0  0  0  0  0  0  0  0  0  0
   61.6599   80.1406   35.1754 H   0  0  0  0  0  0  0  0  0  0  0  0
   60.6599   80.3044   33.6922 H   0  0  0  0  0  0  0  0  0  0  0  0
   62.0967   79.2262   33.6922 H   0  0  0  0  0  0  0  0  0  0  0  0
   62.7095   82.0077   34.4682 H   0  0  0  0  0  0  0  0  0  0  0  0
   63.5001   80.9091   33.2523 H   0  0  0  0  0  0  0  0  0  0  0  0
   60.7240   80.4690   32.2190 H   0  0  0  0  0  0  0  0  0  0  0  0
   58.6678   80.3968   32.2625 H   0  0  0  0  0  0  0  0  0  0  0  0
   56.7666   78.9241   31.6300 H   0  0  0  0  0  0  0  0  0  0  0  0
   54.8460   79.8050   28.0460 H   0  0  0  0  0  0  0  0  0  0  0  0
   52.9602   78.3134   27.4103 H   0  0  0  0  0  0  0  0  0  0  0  0
   52.9615   75.9233   28.1167 H   0  0  0  0  0  0  0  0  0  0  0  0
   54.8596   75.0283   29.4644 H   0  0  0  0  0  0  0  0  0  0  0  0
   56.7458   76.5159   30.1074 H   0  0  0  0  0  0  0  0  0  0  0  0
   59.5428   81.0759   28.0824 H   0  0  0  0  0  0  0  0  0  0  0  0
  1  2  1  0
  2  3  1  0
  3  4  2  0
  3  5  1  0
  5  6  1  0
  6  7  2  0
  6  8  1  0
  8  9  1  0
  9 10  2  0
 10 11  1  0
 11 12  1  0
 12 13  2  0
 13 14  1  0
 14 15  2  0
 15 16  1  0
 16 17  2  0
 11 18  2  0
 18 19  1  0
 18 20  1  0
 20  8  2  0
 17 12  1  0
  1 21  1  0
  1 22  1  0
  1 23  1  0
  2 24  1  0
  2 25  1  0
  5 26  1  0
  9 27  1  0
 10 28  1  0
 13 29  1  0
 14 30  1  0
 15 31  1  0
 16 32  1  0
 17 33  1  0
 20 34  1  0
M  END
>  <meeko>  (1) 
{"is_sidechain": false}

>  <smiles>  (1) 
CCC(=O)NC(=O)c1ccc(-c2ccccc2)c(F)c1

>  <vina_score>  (1) 
-7.710

>  <job_id>  (1) 
c6d69fedf1be3b6c

$$$$
