
     RDKit          3D

 62 66  0  0  0  0  0  0  0  0999 V2000
   57.8100   81.4110   32.7500 C   0  0  0  0  0  0  0  0  0  0  0  0
   58.9370   80.7770   31.9820 C   0  0  0  0  0  0  0  0  0  0  0  0
   58.7790   80.0400   30.8680 C   0  0  0  0  0  0  0  0  0  0  0  0
   57.6150   79.7150   30.2150 N   0  0  0  0  0  0  0  0  0  0  0  0
   57.5160   78.7290   29.1550 C   0  0  0  0  0  0  0  0  0  0  0  0
   56.4300   79.1310   28.1890 C   0  0  0  0  0  0  0  0  0  0  0  0
   56.6330   80.1670   27.2700 C   0  0  0  0  0  0  0  0  0  0  0  0
   55.6230   80.5250   26.3700 C   0  0  0  0  0  0  0  0  0  0  0  0
   54.3920   79.8540   26.3590 C   0  0  0  0  0  0  0  0  0  0  0  0
   53.3380   80.2210   25.4220 C   0  0  0  0  0  0  0  0  0  0  0  0
   52.1850   80.9780   25.4750 C   0  0  0  0  0  0  0  0  0  0  0  0
   51.5560   80.9820   24.2550 N   0  0  0  0  0  0  0  0  0  0  0  0
   52.3380   80.2350   23.5110 C   0  0  0  0  0  0  0  0  0  0  0  0
   53.4370   79.7390   24.1400 O   0  0  0  0  0  0  0  0  0  0  0  0
   54.1980   78.8110   27.2760 C   0  0  0  0  0  0  0  0  0  0  0  0
   55.2050   78.4520   28.1790 C   0  0  0  0  0  0  0  0  0  0  0  0
   60.2990   80.9950   32.5230 C   0  0  0  0  0  0  0  0  0  0  0  0
   60.7130   80.3450   33.6940 C   0  0  0  0  0  0  0  0  0  0  0  0
   61.9990   80.5200   34.2190 C   0  0  0  0  0  0  0  0  0  0  0  0
   62.8690   81.3700   33.5310 C   0  0  0  0  0  0  0  0  0  0  0  0
   64.1700   81.7290   33.8140 N   0  0  0  0  0  0  0  0  0  0  0  0
   64.6430   82.6020   32.8740 C   0  0  0  0  0  0  0  0  0  0  0  0
   65.8750   83.0840   32.9740 O   0  0  0  0  0  0  0  0  0  0  0  0
   63.6390   82.7900   31.9530 C   0  0  0  0  0  0  0  0  0  0  0  0
   63.7540   83.6450   30.8490 N   0  0  0  0  0  0  0  0  0  0  0  0
   64.2670   84.7460   31.1460 N   0  0  0  0  0  0  0  0  0  0  0  0
   64.3850   85.5590   30.0070 C   0  0  0  0  0  0  0  0  0  0  0  0
   63.6930   86.7750   29.8950 C   0  0  0  0  0  0  0  0  0  0  0  0
   63.8000   87.5550   28.7400 C   0  0  0  0  0  0  0  0  0  0  0  0
   64.6040   87.1120   27.6880 C   0  0  0  0  0  0  0  0  0  0  0  0
   64.7390   88.0790   26.2070 S   0  0  0  0  0  0  0  0  0  0  0  0
   66.0600   87.3570   25.4540 N   0  0  0  0  0  0  0  0  0  0  0  0
   65.1780   89.4080   26.5680 O   0  0  0  0  0  0  0  0  0  0  0  0
   63.5720   87.8360   25.3960 O   0  0  0  0  0  0  0  0  0  0  0  0
   65.2810   85.8910   27.7700 C   0  0  0  0  0  0  0  0  0  0  0  0
   65.1670   85.1200   28.9310 C   0  0  0  0  0  0  0  0  0  0  0  0
   62.5030   82.0320   32.3550 C   0  0  0  0  0  0  0  0  0  0  0  0
   61.1980   81.8400   31.8510 C   0  0  0  0  0  0  0  0  0  0  0  0
   57.9968   81.3059   33.8289 H   0  0  0  0  0  0  0  0  0  0  0  0
   57.7448   82.4782   32.4914 H   0  0  0  0  0  0  0  0  0  0  0  0
   56.8641   80.9126   32.4914 H   0  0  0  0  0  0  0  0  0  0  0  0
   59.7035   79.6456   30.4211 H   0  0  0  0  0  0  0  0  0  0  0  0
   56.7630   79.8400   30.7570 H   0  0  0  0  0  0  0  0  0  0  0  0
   58.4760   78.6676   28.6215 H   0  0  0  0  0  0  0  0  0  0  0  0
   57.2728   77.7484   29.5902 H   0  0  0  0  0  0  0  0  0  0  0  0
   57.5932   80.7035   27.2551 H   0  0  0  0  0  0  0  0  0  0  0  0
   55.7978   81.3464   25.6595 H   0  0  0  0  0  0  0  0  0  0  0  0
   51.8211   81.5044   26.3697 H   0  0  0  0  0  0  0  0  0  0  0  0
   52.1198   80.0250   22.4535 H   0  0  0  0  0  0  0  0  0  0  0  0
   53.2415   78.2678   27.2857 H   0  0  0  0  0  0  0  0  0  0  0  0
   55.0328   77.6286   28.8878 H   0  0  0  0  0  0  0  0  0  0  0  0
   60.0085   79.6795   34.2144 H   0  0  0  0  0  0  0  0  0  0  0  0
   62.3132   80.0069   35.1399 H   0  0  0  0  0  0  0  0  0  0  0  0
   64.7040   81.4060   34.6070 H   0  0  0  0  0  0  0  0  0  0  0  0
   66.4070   82.6130   32.3040 H   0  0  0  0  0  0  0  0  0  0  0  0
   63.0591   87.1182   30.7259 H   0  0  0  0  0  0  0  0  0  0  0  0
   63.2564   88.5080   28.6607 H   0  0  0  0  0  0  0  0  0  0  0  0
   65.9700   87.4770   24.4430 H   0  0  0  0  0  0  0  0  0  0  0  0
   66.9590   87.6900   25.7990 H   0  0  0  0  0  0  0  0  0  0  0  0
   65.8974   85.5404   26.9291 H   0  0  0  0  0  0  0  0  0  0  0  0
   65.6970   84.1586   29.0000 H   0  0  0  0  0  0  0  0  0  0  0  0
   60.8845   82.3533   30.9300 H   0  0  0  0  0  0  0  0  0  0  0  0
  1  2  1  0
  2  3  2  3
  3  4  1  0
  4  5  1  0
  5  6  1  0
  6  7  1  0
  7  8  2  0
  8  9  1  0
  9 10  1  0
 10 11  2  0
 11 12  1  0
 12 13  2  0
 13 14  1  0
  9 15  2  0
 15 16  1  0
  2 17  1  0
 17 18  2  0
 18 19  1  0
 19 20  2  0
 20 21  1  0
 21 22  1  0
 22 23  1  0
 22 24  2  0
 24 25  1  0
 25 26  2  3
 26 27  1  0
 27 28  1  0
 28 29  2  0
 29 30  1  0
 30 31  1  0
 31 32  1  0
 31 33  2  0
 31 34  2  0
 30 35  2  0
 35 36  1  0
 24 37  1  0
 37 38  2  0
 16  6  2  0
 38 17  1  0
 14 10  1  0
 37 20  1  0
 36 27  2  0
  1 39  1  0
  1 40  1  0
  1 41  1  0
  3 42  1  0
  4 43  1  0
  5 44  1  0
  5 45  1  0
  7 46  1  0
  8 47  1  0
 11 48  1  0
 13 49  1  0
 15 50  1  0
 16 51  1  0
 18 52  1  0
 19 53  1  0
 21 54  1  0
 23 55  1  0
 28 56  1  0
 29 57  1  0
 32 58  1  0
 32 59  1  0
 35 60  1  0
 36 61  1  0
 38 62  1  0
M  END
>  <meeko>  (1) 
{"is_sidechain": false}

>  <smiles>  (1) 
CC(=CNCc1ccc(-c2cnco2)cc1)c1ccc2[nH]c(O)c(N=Nc3ccc(S(N)(=O)=O)cc3)c2c1

>  <vina_score>  (1) 
-9.080

>  <job_id>  (1) 
c797a48d7b884a71

$$$$
