
     RDKit          3D

 33 37  0  0  0  0  0  0  0  0999 V2000
   51.1310   80.9820   23.6250 C   0  0  0  0  0  0  0  0  0  0  0  0
   51.4960   80.8410   24.9930 O   0  0  0  0  0  0  0  0  0  0  0  0
   52.7430   81.2800   25.3730 C   0  0  0  0  0  0  0  0  0  0  0  0
   53.2900   82.5020   24.9700 C   0  0  0  0  0  0  0  0  0  0  0  0
   54.5590   82.8790   25.3950 C   0  0  0  0  0  0  0  0  0  0  0  0
   55.2980   82.0420   26.2280 C   0  0  0  0  0  0  0  0  0  0  0  0
   54.7960   80.8010   26.6630 C   0  0  0  0  0  0  0  0  0  0  0  0
   53.4800   80.4130   26.2210 C   0  0  0  0  0  0  0  0  0  0  0  0
   52.9370   79.1690   26.6390 C   0  0  0  0  0  0  0  0  0  0  0  0
   53.6800   78.3570   27.4590 C   0  0  0  0  0  0  0  0  0  0  0  0
   54.9230   78.7300   27.8740 C   0  0  0  0  0  0  0  0  0  0  0  0
   55.4490   77.7410   28.6840 C   0  0  0  0  0  0  0  0  0  0  0  0
   56.7020   77.8580   29.2450 C   0  0  0  0  0  0  0  0  0  0  0  0
   57.3730   79.0280   28.9330 C   0  0  0  0  0  0  0  0  0  0  0  0
   56.8350   80.0240   28.1130 C   0  0  0  0  0  0  0  0  0  0  0  0
   55.5520   79.9240   27.5270 C   0  0  0  0  0  0  0  0  0  0  0  0
   57.7060   81.0660   27.9700 O   0  0  0  0  0  0  0  0  0  0  0  0
   58.8220   80.6290   28.7700 C   0  0  0  0  0  0  0  0  0  0  0  0
   58.6200   79.3420   29.3810 O   0  0  0  0  0  0  0  0  0  0  0  0
   54.4350   76.6690   28.7700 C   0  0  0  0  0  0  0  0  0  0  0  0
   54.5330   75.6330   29.3940 O   0  0  0  0  0  0  0  0  0  0  0  0
   53.3730   77.1090   27.9960 N   0  0  0  0  0  0  0  0  0  0  0  0
   50.1068   81.3776   23.5577 H   0  0  0  0  0  0  0  0  0  0  0  0
   51.8256   81.6765   23.1299 H   0  0  0  0  0  0  0  0  0  0  0  0
   51.1784   80.0009   23.1299 H   0  0  0  0  0  0  0  0  0  0  0  0
   52.7129   83.1691   24.3128 H   0  0  0  0  0  0  0  0  0  0  0  0
   54.9812   83.8421   25.0722 H   0  0  0  0  0  0  0  0  0  0  0  0
   56.2995   82.3590   26.5542 H   0  0  0  0  0  0  0  0  0  0  0  0
   51.9339   78.8602   26.3098 H   0  0  0  0  0  0  0  0  0  0  0  0
   57.1361   77.0810   29.8915 H   0  0  0  0  0  0  0  0  0  0  0  0
   59.7117   80.5729   28.1256 H   0  0  0  0  0  0  0  0  0  0  0  0
   58.9425   81.3588   29.5842 H   0  0  0  0  0  0  0  0  0  0  0  0
   52.5210   76.5890   27.8590 H   0  0  0  0  0  0  0  0  0  0  0  0
  1  2  1  0
  2  3  1  0
  3  4  1  0
  4  5  2  0
  5  6  1  0
  6  7  2  0
  7  8  1  0
  8  9  1  0
  9 10  2  0
 10 11  1  0
 11 12  2  0
 12 13  1  0
 13 14  2  0
 14 15  1  0
 15 16  2  0
 15 17  1  0
 17 18  1  0
 18 19  1  0
 12 20  1  0
 20 21  2  0
 20 22  1  0
  8  3  2  0
 22 10  1  0
 16  7  1  0
 16 11  1  0
 19 14  1  0
  1 23  1  0
  1 24  1  0
  1 25  1  0
  4 26  1  0
  5 27  1  0
  6 28  1  0
  9 29  1  0
 13 30  1  0
 18 31  1  0
 18 32  1  0
 22 33  1  0
M  END
>  <meeko>  (1) 
{"is_sidechain": false}

>  <smiles>  (1) 
COc1cccc2c1cc1c3c(cc4c(c32)OCO4)C(=O)N1

>  <vina_score>  (1) 
-8.536

>  <job_id>  (1) 
c798bff50bfd1b0f

$$$$
