
     RDKit          3D

 54 56  0  0  0  0  0  0  0  0999 V2000
   64.7010   83.0140   31.0200 C   0  0  0  0  0  0  0  0  0  0  0  0
   64.0240   84.0820   30.5600 C   0  0  0  0  0  0  0  0  0  0  0  0
   64.6560   85.0490   29.6080 C   0  0  0  0  0  0  0  0  0  0  0  0
   62.5960   84.2440   31.0200 C   0  0  0  0  0  0  0  0  0  0  0  0
   62.2540   85.2480   31.6340 O   0  0  0  0  0  0  0  0  0  0  0  0
   61.7640   83.1960   30.6800 N   0  0  0  0  0  0  0  0  0  0  0  0
   60.4220   83.0920   31.0120 C   0  0  0  0  0  0  0  0  0  0  0  0
   59.8000   83.8890   31.7050 O   0  0  0  0  0  0  0  0  0  0  0  0
   59.6940   81.8980   30.4880 C   0  0  0  0  0  0  0  0  0  0  0  0
   59.6060   81.7170   29.1030 C   0  0  0  0  0  0  0  0  0  0  0  0
   58.9340   80.6100   28.5630 C   0  0  0  0  0  0  0  0  0  0  0  0
   58.3310   79.6520   29.3850 C   0  0  0  0  0  0  0  0  0  0  0  0
   57.6530   78.5270   28.9080 N   0  0  0  0  0  0  0  0  0  0  0  0
   56.3080   78.2060   28.7440 C   0  0  0  0  0  0  0  0  0  0  0  0
   55.6500   77.4280   29.6160 N   0  0  0  0  0  0  0  0  0  0  0  0
   54.3540   77.1570   29.3540 C   0  0  0  0  0  0  0  0  0  0  0  0
   53.6910   77.6400   28.2580 C   0  0  0  0  0  0  0  0  0  0  0  0
   52.4040   77.3400   28.0420 F   0  0  0  0  0  0  0  0  0  0  0  0
   54.4310   78.4450   27.4230 C   0  0  0  0  0  0  0  0  0  0  0  0
   53.8790   79.0150   26.1960 C   0  0  0  0  0  0  0  0  0  0  0  0
   53.3100   78.3620   25.1210 C   0  0  0  0  0  0  0  0  0  0  0  0
   52.9570   79.2310   24.1340 N   0  0  0  0  0  0  0  0  0  0  0  0
   53.2840   80.4300   24.5710 C   0  0  0  0  0  0  0  0  0  0  0  0
   53.0850   81.6670   23.7730 C   0  0  0  0  0  0  0  0  0  0  0  0
   53.8060   80.3630   25.8520 N   0  0  0  0  0  0  0  0  0  0  0  0
   54.1820   81.4790   26.7210 C   0  0  0  0  0  0  0  0  0  0  0  0
   55.5150   82.1030   26.3060 C   0  0  0  0  0  0  0  0  0  0  0  0
   53.0920   82.5400   26.8950 C   0  0  0  0  0  0  0  0  0  0  0  0
   55.7340   78.7320   27.6470 N   0  0  0  0  0  0  0  0  0  0  0  0
   58.4280   79.8400   30.7710 C   0  0  0  0  0  0  0  0  0  0  0  0
   59.0960   80.9440   31.3070 C   0  0  0  0  0  0  0  0  0  0  0  0
   59.1440   81.0580   32.6440 F   0  0  0  0  0  0  0  0  0  0  0  0
   64.2176   82.3157   31.7191 H   0  0  0  0  0  0  0  0  0  0  0  0
   65.7379   82.8392   30.6970 H   0  0  0  0  0  0  0  0  0  0  0  0
   65.1716   85.8380   30.1752 H   0  0  0  0  0  0  0  0  0  0  0  0
   65.3822   84.5185   28.9746 H   0  0  0  0  0  0  0  0  0  0  0  0
   63.8786   85.5012   28.9746 H   0  0  0  0  0  0  0  0  0  0  0  0
   62.1490   82.4540   30.1200 H   0  0  0  0  0  0  0  0  0  0  0  0
   60.0698   82.4523   28.4290 H   0  0  0  0  0  0  0  0  0  0  0  0
   58.8802   80.4930   27.4706 H   0  0  0  0  0  0  0  0  0  0  0  0
   58.2080   77.7200   28.6630 H   0  0  0  0  0  0  0  0  0  0  0  0
   53.8024   76.5154   30.0569 H   0  0  0  0  0  0  0  0  0  0  0  0
   53.1602   77.2735   25.0683 H   0  0  0  0  0  0  0  0  0  0  0  0
   52.9474   82.5224   24.4508 H   0  0  0  0  0  0  0  0  0  0  0  0
   53.9669   81.8400   23.1387 H   0  0  0  0  0  0  0  0  0  0  0  0
   52.1934   81.5547   23.1387 H   0  0  0  0  0  0  0  0  0  0  0  0
   54.3108   81.0303   27.7170 H   0  0  0  0  0  0  0  0  0  0  0  0
   56.0895   82.3719   27.2047 H   0  0  0  0  0  0  0  0  0  0  0  0
   56.0880   81.3795   25.7074 H   0  0  0  0  0  0  0  0  0  0  0  0
   55.3264   83.0064   25.7074 H   0  0  0  0  0  0  0  0  0  0  0  0
   52.9154   82.7119   27.9670 H   0  0  0  0  0  0  0  0  0  0  0  0
   53.4152   83.4788   26.4215 H   0  0  0  0  0  0  0  0  0  0  0  0
   52.1623   82.1916   26.4215 H   0  0  0  0  0  0  0  0  0  0  0  0
   57.9698   79.1048   31.4489 H   0  0  0  0  0  0  0  0  0  0  0  0
  1  2  2  0
  2  3  1  0
  2  4  1  0
  4  5  2  0
  4  6  1  0
  6  7  1  0
  7  8  2  0
  7  9  1  0
  9 10  1  0
 10 11  2  0
 11 12  1  0
 12 13  1  0
 13 14  1  0
 14 15  2  0
 15 16  1  0
 16 17  2  0
 17 18  1  0
 17 19  1  0
 19 20  1  0
 20 21  2  0
 21 22  1  0
 22 23  2  0
 23 24  1  0
 23 25  1  0
 25 26  1  0
 26 27  1  0
 26 28  1  0
 19 29  2  0
 12 30  2  0
 30 31  1  0
 31 32  1  0
 31  9  2  0
 29 14  1  0
 25 20  1  0
  1 33  1  0
  1 34  1  0
  3 35  1  0
  3 36  1  0
  3 37  1  0
  6 38  1  0
 10 39  1  0
 11 40  1  0
 13 41  1  0
 16 42  1  0
 21 43  1  0
 24 44  1  0
 24 45  1  0
 24 46  1  0
 26 47  1  0
 27 48  1  0
 27 49  1  0
 27 50  1  0
 28 51  1  0
 28 52  1  0
 28 53  1  0
 30 54  1  0
M  END
>  <meeko>  (1) 
{"is_sidechain": false}

>  <smiles>  (1) 
C=C(C)C(=O)NC(=O)c1ccc(Nc2ncc(F)c(-c3cnc(C)n3C(C)C)n2)cc1F

>  <vina_score>  (1) 
-9.318

>  <job_id>  (1) 
c7b5468aaf46badf

$$$$
