
     RDKit          3D

 36 39  0  0  0  0  0  0  0  0999 V2000
   58.4070   79.0340   28.0160 O   0  0  0  0  0  0  0  0  0  0  0  0
   58.1610   79.4540   29.1410 C   0  0  0  0  0  0  0  0  0  0  0  0
   57.0720   79.1070   29.9110 N   0  0  0  0  0  0  0  0  0  0  0  0
   56.1370   78.1860   29.4750 C   0  0  0  0  0  0  0  0  0  0  0  0
   56.0750   76.8850   29.9120 N   0  0  0  0  0  0  0  0  0  0  0  0
   55.0710   76.1590   29.3750 N   0  0  0  0  0  0  0  0  0  0  0  0
   54.4390   77.0120   28.5530 C   0  0  0  0  0  0  0  0  0  0  0  0
   53.3160   76.8040   27.7360 C   0  0  0  0  0  0  0  0  0  0  0  0
   52.9350   77.9460   26.9940 C   0  0  0  0  0  0  0  0  0  0  0  0
   53.6090   79.2080   27.0630 C   0  0  0  0  0  0  0  0  0  0  0  0
   53.1190   80.2170   26.1710 N   0  0  0  0  0  0  0  0  0  0  0  0
   52.9350   79.8570   24.7510 C   0  0  0  0  0  0  0  0  0  0  0  0
   52.3880   81.1370   24.1200 C   0  0  0  0  0  0  0  0  0  0  0  0
   53.2550   82.2790   24.6360 C   0  0  0  0  0  0  0  0  0  0  0  0
   53.7580   81.8040   26.2840 S   0  0  0  0  0  0  0  0  0  0  0  0
   53.0000   82.5380   27.2700 O   0  0  0  0  0  0  0  0  0  0  0  0
   55.2060   81.7510   26.2940 O   0  0  0  0  0  0  0  0  0  0  0  0
   54.7530   79.4320   27.8560 C   0  0  0  0  0  0  0  0  0  0  0  0
   55.1010   78.2960   28.5850 C   0  0  0  0  0  0  0  0  0  0  0  0
   59.0280   80.3990   29.7980 C   0  0  0  0  0  0  0  0  0  0  0  0
   59.4760   80.9980   30.8640 C   0  0  0  0  0  0  0  0  0  0  0  0
   60.0570   81.3860   29.6100 C   0  0  0  0  0  0  0  0  0  0  0  0
   56.9600   79.5040   30.8370 H   0  0  0  0  0  0  0  0  0  0  0  0
   56.7000   76.4500   30.5860 H   0  0  0  0  0  0  0  0  0  0  0  0
   52.7830   75.8435   27.6786 H   0  0  0  0  0  0  0  0  0  0  0  0
   52.0679   77.8598   26.3227 H   0  0  0  0  0  0  0  0  0  0  0  0
   53.8928   79.5716   24.2915 H   0  0  0  0  0  0  0  0  0  0  0  0
   52.2661   78.9946   24.6133 H   0  0  0  0  0  0  0  0  0  0  0  0
   52.4515   81.0772   23.0235 H   0  0  0  0  0  0  0  0  0  0  0  0
   51.3310   81.2899   24.3834 H   0  0  0  0  0  0  0  0  0  0  0  0
   54.1356   82.4129   23.9906 H   0  0  0  0  0  0  0  0  0  0  0  0
   52.7072   83.2329   24.6395 H   0  0  0  0  0  0  0  0  0  0  0  0
   55.3023   80.3842   27.8946 H   0  0  0  0  0  0  0  0  0  0  0  0
   59.4368   81.1205   31.9565 H   0  0  0  0  0  0  0  0  0  0  0  0
   59.8289   82.3628   29.1585 H   0  0  0  0  0  0  0  0  0  0  0  0
   61.0600   81.4378   29.1614 H   0  0  0  0  0  0  0  0  0  0  0  0
  1  2  2  0
  2  3  1  0
  3  4  1  0
  4  5  1  0
  5  6  1  0
  6  7  2  0
  7  8  1  0
  8  9  2  0
  9 10  1  0
 10 11  1  0
 11 12  1  0
 12 13  1  0
 13 14  1  0
 14 15  1  0
 15 16  2  0
 15 17  2  0
 10 18  2  0
 18 19  1  0
  2 20  1  0
 20 21  2  0
 21 22  1  0
 19  4  2  0
 22 20  1  0
 19  7  1  0
 15 11  1  0
  3 23  1  0
  5 24  1  0
  8 25  1  0
  9 26  1  0
 12 27  1  0
 12 28  1  0
 13 29  1  0
 13 30  1  0
 14 31  1  0
 14 32  1  0
 18 33  1  0
 21 34  1  0
 22 35  1  0
 22 36  1  0
M  END
>  <meeko>  (1) 
{"is_sidechain": false}

>  <smiles>  (1) 
O=C(Nc1[nH]nc2ccc(N3CCCS3(=O)=O)cc12)C1=CC1

>  <vina_score>  (1) 
-8.587

>  <job_id>  (1) 
c7edd518ac97c795

$$$$
