
     RDKit          3D

 64 67  0  0  0  0  0  0  0  0999 V2000
   51.3270   76.6750   28.4570 C   0  0  0  0  0  0  0  0  0  0  0  0
   52.4690   75.7390   28.0510 C   0  0  0  0  0  0  0  0  0  0  0  0
   52.3530   75.3570   26.5740 C   0  0  0  0  0  0  0  0  0  0  0  0
   53.8110   76.3190   28.3770 C   0  0  0  0  0  0  0  0  0  0  0  0
   54.8400   75.7170   29.1450 C   0  0  0  0  0  0  0  0  0  0  0  0
   55.9340   76.4750   29.2490 N   0  0  0  0  0  0  0  0  0  0  0  0
   55.5870   77.5980   28.5850 N   0  0  0  0  0  0  0  0  0  0  0  0
   56.3970   78.7360   28.4110 C   0  0  0  0  0  0  0  0  0  0  0  0
   57.6440   78.8200   29.0050 N   0  0  0  0  0  0  0  0  0  0  0  0
   57.7700   79.4930   30.3060 C   0  0  0  0  0  0  0  0  0  0  0  0
   58.8040   80.5950   30.3490 C   0  0  0  0  0  0  0  0  0  0  0  0
   59.3070   81.0940   29.1280 C   0  0  0  0  0  0  0  0  0  0  0  0
   60.2610   82.1070   29.1020 C   0  0  0  0  0  0  0  0  0  0  0  0
   60.7330   82.6340   30.2970 C   0  0  0  0  0  0  0  0  0  0  0  0
   60.2560   82.1410   31.5140 C   0  0  0  0  0  0  0  0  0  0  0  0
   59.2950   81.1130   31.5680 C   0  0  0  0  0  0  0  0  0  0  0  0
   58.8120   80.6070   32.7980 N   0  0  0  0  0  0  0  0  0  0  0  0
   59.8310   80.3690   33.8220 C   0  0  0  0  0  0  0  0  0  0  0  0
   57.6770   81.4140   33.2700 C   0  0  0  0  0  0  0  0  0  0  0  0
   55.9640   79.7060   27.6540 N   0  0  0  0  0  0  0  0  0  0  0  0
   54.7060   79.5780   27.1040 C   0  0  0  0  0  0  0  0  0  0  0  0
   54.2920   80.6240   26.3450 O   0  0  0  0  0  0  0  0  0  0  0  0
   52.8950   80.7970   26.0140 C   0  0  0  0  0  0  0  0  0  0  0  0
   52.5600   82.2840   25.8720 C   0  0  0  0  0  0  0  0  0  0  0  0
   53.2350   82.8990   24.6450 C   0  0  0  0  0  0  0  0  0  0  0  0
   52.9660   82.1840   23.3920 N   0  0  0  0  0  0  0  0  0  0  0  0
   51.6060   82.3940   22.9040 C   0  0  0  0  0  0  0  0  0  0  0  0
   53.3100   80.7620   23.5150 C   0  0  0  0  0  0  0  0  0  0  0  0
   52.6380   80.0610   24.6970 C   0  0  0  0  0  0  0  0  0  0  0  0
   53.8950   78.5750   27.2520 N   0  0  0  0  0  0  0  0  0  0  0  0
   54.3440   77.5390   28.0070 C   0  0  0  0  0  0  0  0  0  0  0  0
   51.2662   76.7248   29.5542 H   0  0  0  0  0  0  0  0  0  0  0  0
   51.5166   77.6809   28.0542 H   0  0  0  0  0  0  0  0  0  0  0  0
   50.3779   76.2916   28.0542 H   0  0  0  0  0  0  0  0  0  0  0  0
   52.3775   74.8176   28.6449 H   0  0  0  0  0  0  0  0  0  0  0  0
   52.0343   74.3075   26.4906 H   0  0  0  0  0  0  0  0  0  0  0  0
   51.6113   76.0054   26.0847 H   0  0  0  0  0  0  0  0  0  0  0  0
   53.3300   75.4835   26.0847 H   0  0  0  0  0  0  0  0  0  0  0  0
   54.7461   74.7241   29.6090 H   0  0  0  0  0  0  0  0  0  0  0  0
   58.2520   79.3400   28.3790 H   0  0  0  0  0  0  0  0  0  0  0  0
   56.7933   79.9293   30.5622 H   0  0  0  0  0  0  0  0  0  0  0  0
   58.1024   78.7266   31.0216 H   0  0  0  0  0  0  0  0  0  0  0  0
   58.9383   80.6747   28.1802 H   0  0  0  0  0  0  0  0  0  0  0  0
   60.6386   82.4876   28.1415 H   0  0  0  0  0  0  0  0  0  0  0  0
   61.4822   83.4393   30.2853 H   0  0  0  0  0  0  0  0  0  0  0  0
   60.6404   82.5661   32.4529 H   0  0  0  0  0  0  0  0  0  0  0  0
   59.3799   80.4744   34.8197 H   0  0  0  0  0  0  0  0  0  0  0  0
   60.2351   79.3523   33.7078 H   0  0  0  0  0  0  0  0  0  0  0  0
   60.6436   81.1015   33.7078 H   0  0  0  0  0  0  0  0  0  0  0  0
   57.6653   81.4223   34.3699 H   0  0  0  0  0  0  0  0  0  0  0  0
   57.7788   82.4437   32.8966 H   0  0  0  0  0  0  0  0  0  0  0  0
   56.7379   80.9797   32.8966 H   0  0  0  0  0  0  0  0  0  0  0  0
   52.2571   80.3887   26.8117 H   0  0  0  0  0  0  0  0  0  0  0  0
   51.4702   82.3965   25.7737 H   0  0  0  0  0  0  0  0  0  0  0  0
   52.9301   82.8068   26.7663 H   0  0  0  0  0  0  0  0  0  0  0  0
   52.8773   83.9335   24.5361 H   0  0  0  0  0  0  0  0  0  0  0  0
   54.3199   82.8406   24.8170 H   0  0  0  0  0  0  0  0  0  0  0  0
   50.9219   82.4996   23.7589 H   0  0  0  0  0  0  0  0  0  0  0  0
   51.5728   83.3079   22.2927 H   0  0  0  0  0  0  0  0  0  0  0  0
   51.2987   81.5327   22.2927 H   0  0  0  0  0  0  0  0  0  0  0  0
   53.0047   80.2507   22.5901 H   0  0  0  0  0  0  0  0  0  0  0  0
   54.3950   80.7101   23.6883 H   0  0  0  0  0  0  0  0  0  0  0  0
   51.5535   80.0204   24.5174 H   0  0  0  0  0  0  0  0  0  0  0  0
   53.0624   79.0497   24.7816 H   0  0  0  0  0  0  0  0  0  0  0  0
  1  2  1  0
  2  3  1  0
  2  4  1  0
  4  5  1  0
  5  6  2  0
  6  7  1  0
  7  8  1  0
  8  9  1  0
  9 10  1  0
 10 11  1  0
 11 12  2  0
 12 13  1  0
 13 14  2  0
 14 15  1  0
 15 16  2  0
 16 17  1  0
 17 18  1  0
 17 19  1  0
  8 20  2  0
 20 21  1  0
 21 22  1  0
 22 23  1  0
 23 24  1  0
 24 25  1  0
 25 26  1  0
 26 27  1  0
 26 28  1  0
 28 29  1  0
 21 30  2  0
 30 31  1  0
 31  4  2  0
 31  7  1  0
 16 11  1  0
 29 23  1  0
  1 32  1  0
  1 33  1  0
  1 34  1  0
  2 35  1  0
  3 36  1  0
  3 37  1  0
  3 38  1  0
  5 39  1  0
  9 40  1  0
 10 41  1  0
 10 42  1  0
 12 43  1  0
 13 44  1  0
 14 45  1  0
 15 46  1  0
 18 47  1  0
 18 48  1  0
 18 49  1  0
 19 50  1  0
 19 51  1  0
 19 52  1  0
 23 53  1  0
 24 54  1  0
 24 55  1  0
 25 56  1  0
 25 57  1  0
 27 58  1  0
 27 59  1  0
 27 60  1  0
 28 61  1  0
 28 62  1  0
 29 63  1  0
 29 64  1  0
M  END
>  <meeko>  (1) 
{"is_sidechain": false}

>  <smiles>  (1) 
CC(C)c1cnn2c(NCc3ccccc3N(C)C)nc(OC3CCN(C)CC3)nc12

>  <vina_score>  (1) 
-8.083

>  <job_id>  (1) 
c80c8bc7af596036

$$$$
