
     RDKit          3D

 43 44  0  0  0  0  0  0  0  0999 V2000
   63.2830   82.0620   32.9700 C   0  0  0  0  0  0  0  0  0  0  0  0
   63.2960   82.4080   31.4820 C   0  0  0  0  0  0  0  0  0  0  0  0
   64.7190   82.7220   31.0170 C   0  0  0  0  0  0  0  0  0  0  0  0
   62.3080   83.5270   31.1180 C   0  0  0  0  0  0  0  0  0  0  0  0
   60.8900   83.0500   30.8350 C   0  0  0  0  0  0  0  0  0  0  0  0
   59.9380   83.8090   30.9820 O   0  0  0  0  0  0  0  0  0  0  0  0
   60.8390   81.7280   30.4320 N   0  0  0  0  0  0  0  0  0  0  0  0
   59.6940   80.9690   30.1150 C   0  0  0  0  0  0  0  0  0  0  0  0
   58.9350   80.2690   31.0510 C   0  0  0  0  0  0  0  0  0  0  0  0
   57.8110   79.5340   30.6500 C   0  0  0  0  0  0  0  0  0  0  0  0
   57.4150   79.4820   29.3050 C   0  0  0  0  0  0  0  0  0  0  0  0
   56.2350   78.7080   28.8880 C   0  0  0  0  0  0  0  0  0  0  0  0
   55.4180   79.1490   27.8300 C   0  0  0  0  0  0  0  0  0  0  0  0
   54.2990   78.4160   27.4300 C   0  0  0  0  0  0  0  0  0  0  0  0
   53.9790   77.2310   28.0960 C   0  0  0  0  0  0  0  0  0  0  0  0
   52.5600   76.3020   27.5800 S   0  0  0  0  0  0  0  0  0  0  0  0
   53.0050   74.7380   28.0200 N   0  0  0  0  0  0  0  0  0  0  0  0
   52.5120   76.3000   26.1350 O   0  0  0  0  0  0  0  0  0  0  0  0
   51.4360   76.6930   28.3960 O   0  0  0  0  0  0  0  0  0  0  0  0
   54.7770   76.7640   29.1390 C   0  0  0  0  0  0  0  0  0  0  0  0
   55.8960   77.5050   29.5330 C   0  0  0  0  0  0  0  0  0  0  0  0
   58.1860   80.1890   28.3720 C   0  0  0  0  0  0  0  0  0  0  0  0
   59.3100   80.9230   28.7700 C   0  0  0  0  0  0  0  0  0  0  0  0
   63.3178   82.9883   33.5622 H   0  0  0  0  0  0  0  0  0  0  0  0
   62.3634   81.5080   33.2096 H   0  0  0  0  0  0  0  0  0  0  0  0
   64.1584   81.4405   33.2096 H   0  0  0  0  0  0  0  0  0  0  0  0
   62.9455   81.5189   30.9374 H   0  0  0  0  0  0  0  0  0  0  0  0
   65.3680   82.8652   31.8935 H   0  0  0  0  0  0  0  0  0  0  0  0
   65.0997   81.8863   30.4115 H   0  0  0  0  0  0  0  0  0  0  0  0
   64.7126   83.6403   30.4115 H   0  0  0  0  0  0  0  0  0  0  0  0
   62.2704   84.2382   31.9563 H   0  0  0  0  0  0  0  0  0  0  0  0
   62.6776   83.9797   30.1861 H   0  0  0  0  0  0  0  0  0  0  0  0
   61.7230   81.2420   30.3570 H   0  0  0  0  0  0  0  0  0  0  0  0
   59.2204   80.2935   32.1131 H   0  0  0  0  0  0  0  0  0  0  0  0
   57.2275   78.9868   31.4051 H   0  0  0  0  0  0  0  0  0  0  0  0
   55.6651   80.0863   27.3099 H   0  0  0  0  0  0  0  0  0  0  0  0
   53.6741   78.7693   26.5965 H   0  0  0  0  0  0  0  0  0  0  0  0
   53.0230   74.5930   29.0280 H   0  0  0  0  0  0  0  0  0  0  0  0
   53.9050   74.5180   27.5880 H   0  0  0  0  0  0  0  0  0  0  0  0
   54.5289   75.8209   29.6479 H   0  0  0  0  0  0  0  0  0  0  0  0
   56.5215   77.1407   30.3613 H   0  0  0  0  0  0  0  0  0  0  0  0
   57.9032   80.1668   27.3092 H   0  0  0  0  0  0  0  0  0  0  0  0
   59.8975   81.4693   28.0174 H   0  0  0  0  0  0  0  0  0  0  0  0
  1  2  1  0
  2  3  1  0
  2  4  1  0
  4  5  1  0
  5  6  2  0
  5  7  1  0
  7  8  1  0
  8  9  1  0
  9 10  2  0
 10 11  1  0
 11 12  1  0
 12 13  1  0
 13 14  2  0
 14 15  1  0
 15 16  1  0
 16 17  1  0
 16 18  2  0
 16 19  2  0
 15 20  2  0
 20 21  1  0
 11 22  2  0
 22 23  1  0
 23  8  2  0
 21 12  2  0
  1 24  1  0
  1 25  1  0
  1 26  1  0
  2 27  1  0
  3 28  1  0
  3 29  1  0
  3 30  1  0
  4 31  1  0
  4 32  1  0
  7 33  1  0
  9 34  1  0
 10 35  1  0
 13 36  1  0
 14 37  1  0
 17 38  1  0
 17 39  1  0
 20 40  1  0
 21 41  1  0
 22 42  1  0
 23 43  1  0
M  END
>  <meeko>  (1) 
{"is_sidechain": false}

>  <smiles>  (1) 
CC(C)CC(=O)Nc1ccc(-c2ccc(S(N)(=O)=O)cc2)cc1

>  <vina_score>  (1) 
-7.908

>  <job_id>  (1) 
c8298ab83be2c10e

$$$$
