
     RDKit          3D

 48 50  0  0  0  0  0  0  0  0999 V2000
   59.6830   81.5700   33.9190 C   0  0  0  0  0  0  0  0  0  0  0  0
   60.3630   81.9560   32.7310 O   0  0  0  0  0  0  0  0  0  0  0  0
   59.8670   81.4730   31.5520 C   0  0  0  0  0  0  0  0  0  0  0  0
   60.2120   81.9070   30.2750 C   0  0  0  0  0  0  0  0  0  0  0  0
   59.6220   81.3210   29.1460 C   0  0  0  0  0  0  0  0  0  0  0  0
   58.6890   80.2860   29.2680 C   0  0  0  0  0  0  0  0  0  0  0  0
   58.0470   79.6990   28.1660 N   0  0  0  0  0  0  0  0  0  0  0  0
   56.7330   79.8010   27.6780 C   0  0  0  0  0  0  0  0  0  0  0  0
   55.8090   78.7980   28.0000 C   0  0  0  0  0  0  0  0  0  0  0  0
   54.5030   78.8280   27.5010 C   0  0  0  0  0  0  0  0  0  0  0  0
   54.0900   79.8620   26.6540 C   0  0  0  0  0  0  0  0  0  0  0  0
   55.0010   80.8880   26.3350 C   0  0  0  0  0  0  0  0  0  0  0  0
   56.3130   80.8360   26.8360 C   0  0  0  0  0  0  0  0  0  0  0  0
   54.5990   82.0180   25.4120 C   0  0  0  0  0  0  0  0  0  0  0  0
   53.0790   82.1440   25.3070 C   0  0  0  0  0  0  0  0  0  0  0  0
   52.4910   80.8340   25.0430 N   0  0  0  0  0  0  0  0  0  0  0  0
   52.2120   80.4920   23.7260 C   0  0  0  0  0  0  0  0  0  0  0  0
   52.2790   79.3210   23.3430 O   0  0  0  0  0  0  0  0  0  0  0  0
   51.8610   81.6120   22.7400 C   0  0  0  0  0  0  0  0  0  0  0  0
   50.5000   81.3570   22.0860 C   0  0  0  0  0  0  0  0  0  0  0  0
   52.9340   81.7270   21.6570 C   0  0  0  0  0  0  0  0  0  0  0  0
   52.6620   79.8890   26.1460 C   0  0  0  0  0  0  0  0  0  0  0  0
   58.3470   79.8630   30.5590 C   0  0  0  0  0  0  0  0  0  0  0  0
   58.9320   80.4470   31.6870 C   0  0  0  0  0  0  0  0  0  0  0  0
   60.2611   81.8981   34.7955 H   0  0  0  0  0  0  0  0  0  0  0  0
   58.6876   82.0377   33.9402 H   0  0  0  0  0  0  0  0  0  0  0  0
   59.5744   80.4756   33.9402 H   0  0  0  0  0  0  0  0  0  0  0  0
   60.9504   82.7129   30.1512 H   0  0  0  0  0  0  0  0  0  0  0  0
   59.8984   81.6824   28.1445 H   0  0  0  0  0  0  0  0  0  0  0  0
   58.6500   79.1060   27.6070 H   0  0  0  0  0  0  0  0  0  0  0  0
   56.1167   77.9716   28.6576 H   0  0  0  0  0  0  0  0  0  0  0  0
   53.7950   78.0325   27.7766 H   0  0  0  0  0  0  0  0  0  0  0  0
   57.0257   81.6270   26.5598 H   0  0  0  0  0  0  0  0  0  0  0  0
   55.0094   82.9610   25.8022 H   0  0  0  0  0  0  0  0  0  0  0  0
   54.9968   81.8020   24.4095 H   0  0  0  0  0  0  0  0  0  0  0  0
   52.6793   82.5399   26.2522 H   0  0  0  0  0  0  0  0  0  0  0  0
   52.8274   82.8277   24.4828 H   0  0  0  0  0  0  0  0  0  0  0  0
   51.8128   82.5548   23.3046 H   0  0  0  0  0  0  0  0  0  0  0  0
   49.7388   81.2144   22.8672 H   0  0  0  0  0  0  0  0  0  0  0  0
   50.2264   82.2195   21.4605 H   0  0  0  0  0  0  0  0  0  0  0  0
   50.5572   80.4539   21.4605 H   0  0  0  0  0  0  0  0  0  0  0  0
   53.9218   81.8329   22.1293 H   0  0  0  0  0  0  0  0  0  0  0  0
   52.9218   80.8224   21.0313 H   0  0  0  0  0  0  0  0  0  0  0  0
   52.7304   82.6085   21.0313 H   0  0  0  0  0  0  0  0  0  0  0  0
   51.9968   80.1824   26.9715 H   0  0  0  0  0  0  0  0  0  0  0  0
   52.4145   78.8839   25.7739 H   0  0  0  0  0  0  0  0  0  0  0  0
   57.6071   79.0593   30.6874 H   0  0  0  0  0  0  0  0  0  0  0  0
   58.6520   80.0937   32.6904 H   0  0  0  0  0  0  0  0  0  0  0  0
  1  2  1  0
  2  3  1  0
  3  4  1  0
  4  5  2  0
  5  6  1  0
  6  7  1  0
  7  8  1  0
  8  9  1  0
  9 10  2  0
 10 11  1  0
 11 12  2  0
 12 13  1  0
 12 14  1  0
 14 15  1  0
 15 16  1  0
 16 17  1  0
 17 18  2  0
 17 19  1  0
 19 20  1  0
 19 21  1  0
 16 22  1  0
  6 23  2  0
 23 24  1  0
 24  3  2  0
 13  8  2  0
 22 11  1  0
  1 25  1  0
  1 26  1  0
  1 27  1  0
  4 28  1  0
  5 29  1  0
  7 30  1  0
  9 31  1  0
 10 32  1  0
 13 33  1  0
 14 34  1  0
 14 35  1  0
 15 36  1  0
 15 37  1  0
 19 38  1  0
 20 39  1  0
 20 40  1  0
 20 41  1  0
 21 42  1  0
 21 43  1  0
 21 44  1  0
 22 45  1  0
 22 46  1  0
 23 47  1  0
 24 48  1  0
M  END
>  <meeko>  (1) 
{"is_sidechain": false}

>  <smiles>  (1) 
COc1ccc(Nc2ccc3c(c2)CCN(C(=O)C(C)C)C3)cc1

>  <vina_score>  (1) 
-8.473

>  <job_id>  (1) 
c86ce3c10b60b802

$$$$
