
     RDKit          3D

 47 49  0  0  0  0  0  0  0  0999 V2000
   52.5600   75.3740   27.2610 C   0  0  0  0  0  0  0  0  0  0  0  0
   52.2040   76.5450   26.5240 O   0  0  0  0  0  0  0  0  0  0  0  0
   52.9350   77.6480   26.8470 C   0  0  0  0  0  0  0  0  0  0  0  0
   52.6140   78.7880   26.5500 O   0  0  0  0  0  0  0  0  0  0  0  0
   54.0400   77.2320   27.5330 N   0  0  0  0  0  0  0  0  0  0  0  0
   55.0810   78.0080   28.0670 C   0  0  0  0  0  0  0  0  0  0  0  0
   55.6420   79.1080   27.4200 C   0  0  0  0  0  0  0  0  0  0  0  0
   56.6810   79.8310   28.0210 C   0  0  0  0  0  0  0  0  0  0  0  0
   57.1850   79.4740   29.2800 C   0  0  0  0  0  0  0  0  0  0  0  0
   58.2760   80.2370   29.9060 C   0  0  0  0  0  0  0  0  0  0  0  0
   58.4620   80.2320   31.2930 C   0  0  0  0  0  0  0  0  0  0  0  0
   59.5030   80.9620   31.8850 C   0  0  0  0  0  0  0  0  0  0  0  0
   60.4080   81.7180   31.1250 C   0  0  0  0  0  0  0  0  0  0  0  0
   61.4280   82.4380   31.7660 N   0  0  0  0  0  0  0  0  0  0  0  0
   62.4320   83.1230   30.9260 C   0  0  0  0  0  0  0  0  0  0  0  0
   63.3360   84.0420   31.7810 C   0  0  0  0  0  0  0  0  0  0  0  0
   63.9890   83.3910   32.9390 N   0  0  0  0  0  0  0  0  0  0  0  0
   65.0500   82.4800   32.5200 C   0  0  0  0  0  0  0  0  0  0  0  0
   62.9520   82.6930   33.7300 C   0  0  0  0  0  0  0  0  0  0  0  0
   62.0210   81.7450   32.9340 C   0  0  0  0  0  0  0  0  0  0  0  0
   60.2020   81.7320   29.7390 C   0  0  0  0  0  0  0  0  0  0  0  0
   59.1620   81.0040   29.1400 C   0  0  0  0  0  0  0  0  0  0  0  0
   56.6120   78.3670   29.9210 C   0  0  0  0  0  0  0  0  0  0  0  0
   55.5740   77.6430   29.3230 C   0  0  0  0  0  0  0  0  0  0  0  0
   52.4958   75.5853   28.3386 H   0  0  0  0  0  0  0  0  0  0  0  0
   51.8699   74.5563   27.0059 H   0  0  0  0  0  0  0  0  0  0  0  0
   53.5885   75.0788   27.0059 H   0  0  0  0  0  0  0  0  0  0  0  0
   54.0830   76.2300   27.6520 H   0  0  0  0  0  0  0  0  0  0  0  0
   55.2666   79.4104   26.4312 H   0  0  0  0  0  0  0  0  0  0  0  0
   57.1101   80.6963   27.4945 H   0  0  0  0  0  0  0  0  0  0  0  0
   57.7814   79.6466   31.9286 H   0  0  0  0  0  0  0  0  0  0  0  0
   59.6133   80.9411   32.9793 H   0  0  0  0  0  0  0  0  0  0  0  0
   63.0568   82.3689   30.4251 H   0  0  0  0  0  0  0  0  0  0  0  0
   61.9053   83.7413   30.1842 H   0  0  0  0  0  0  0  0  0  0  0  0
   64.1249   84.4443   31.1285 H   0  0  0  0  0  0  0  0  0  0  0  0
   62.6735   84.8133   32.2008 H   0  0  0  0  0  0  0  0  0  0  0  0
   65.5423   82.0573   33.4082 H   0  0  0  0  0  0  0  0  0  0  0  0
   64.6185   81.6667   31.9180 H   0  0  0  0  0  0  0  0  0  0  0  0
   65.7887   83.0296   31.9180 H   0  0  0  0  0  0  0  0  0  0  0  0
   63.4607   82.0967   34.5018 H   0  0  0  0  0  0  0  0  0  0  0  0
   62.3007   83.4831   34.1319 H   0  0  0  0  0  0  0  0  0  0  0  0
   62.6038   80.8812   32.5816 H   0  0  0  0  0  0  0  0  0  0  0  0
   61.2066   81.4169   33.5966 H   0  0  0  0  0  0  0  0  0  0  0  0
   60.8728   82.3291   29.1038 H   0  0  0  0  0  0  0  0  0  0  0  0
   59.0408   81.0368   28.0472 H   0  0  0  0  0  0  0  0  0  0  0  0
   56.9842   78.0622   30.9102 H   0  0  0  0  0  0  0  0  0  0  0  0
   55.1417   76.7778   29.8469 H   0  0  0  0  0  0  0  0  0  0  0  0
  1  2  1  0
  2  3  1  0
  3  4  2  0
  3  5  1  0
  5  6  1  0
  6  7  1  0
  7  8  2  0
  8  9  1  0
  9 10  1  0
 10 11  1  0
 11 12  2  0
 12 13  1  0
 13 14  1  0
 14 15  1  0
 15 16  1  0
 16 17  1  0
 17 18  1  0
 17 19  1  0
 19 20  1  0
 13 21  2  0
 21 22  1  0
  9 23  2  0
 23 24  1  0
 24  6  2  0
 22 10  2  0
 20 14  1  0
  1 25  1  0
  1 26  1  0
  1 27  1  0
  5 28  1  0
  7 29  1  0
  8 30  1  0
 11 31  1  0
 12 32  1  0
 15 33  1  0
 15 34  1  0
 16 35  1  0
 16 36  1  0
 18 37  1  0
 18 38  1  0
 18 39  1  0
 19 40  1  0
 19 41  1  0
 20 42  1  0
 20 43  1  0
 21 44  1  0
 22 45  1  0
 23 46  1  0
 24 47  1  0
M  END
>  <meeko>  (1) 
{"is_sidechain": false}

>  <smiles>  (1) 
COC(=O)Nc1ccc(-c2ccc(N3CCN(C)CC3)cc2)cc1

>  <vina_score>  (1) 
-7.400

>  <job_id>  (1) 
c87e82d3b5fefd80

$$$$
