
     RDKit          3D

 41 43  0  0  0  0  0  0  0  0999 V2000
   58.3590   82.2780   28.8920 O   0  0  0  0  0  0  0  0  0  0  0  0
   58.6890   81.1050   29.0050 C   0  0  0  0  0  0  0  0  0  0  0  0
   59.1740   80.5000   30.1420 N   0  0  0  0  0  0  0  0  0  0  0  0
   59.3980   81.0670   31.4090 C   0  0  0  0  0  0  0  0  0  0  0  0
   60.5470   81.7800   31.7540 C   0  0  0  0  0  0  0  0  0  0  0  0
   60.6910   82.3130   33.0390 C   0  0  0  0  0  0  0  0  0  0  0  0
   59.6870   82.1380   33.9890 C   0  0  0  0  0  0  0  0  0  0  0  0
   58.5370   81.4280   33.6550 C   0  0  0  0  0  0  0  0  0  0  0  0
   58.3940   80.8960   32.3710 C   0  0  0  0  0  0  0  0  0  0  0  0
   58.6450   80.1520   28.0140 O   0  0  0  0  0  0  0  0  0  0  0  0
   57.3690   79.6030   27.9840 C   0  0  0  0  0  0  0  0  0  0  0  0
   57.0500   78.7830   28.9940 N   0  0  0  0  0  0  0  0  0  0  0  0
   55.7790   78.3500   28.9820 C   0  0  0  0  0  0  0  0  0  0  0  0
   54.8460   78.7430   28.0460 C   0  0  0  0  0  0  0  0  0  0  0  0
   53.6020   78.2470   28.1070 F   0  0  0  0  0  0  0  0  0  0  0  0
   55.2510   79.6500   27.0660 C   0  0  0  0  0  0  0  0  0  0  0  0
   54.3670   80.1110   26.0690 N   0  0  0  0  0  0  0  0  0  0  0  0
   54.5430   81.5130   25.6690 C   0  0  0  0  0  0  0  0  0  0  0  0
   53.3460   82.1630   24.9680 C   0  0  0  0  0  0  0  0  0  0  0  0
   52.0460   81.4070   25.1840 C   0  0  0  0  0  0  0  0  0  0  0  0
   51.9260   80.3090   24.2880 O   0  0  0  0  0  0  0  0  0  0  0  0
   53.1820   79.7420   23.9130 C   0  0  0  0  0  0  0  0  0  0  0  0
   53.9340   79.1010   25.0870 C   0  0  0  0  0  0  0  0  0  0  0  0
   56.5280   80.0920   27.0530 N   0  0  0  0  0  0  0  0  0  0  0  0
   59.3930   79.5210   30.0240 H   0  0  0  0  0  0  0  0  0  0  0  0
   61.3447   81.9237   31.0103 H   0  0  0  0  0  0  0  0  0  0  0  0
   61.6010   82.8729   33.3008 H   0  0  0  0  0  0  0  0  0  0  0  0
   59.8025   82.5590   34.9987 H   0  0  0  0  0  0  0  0  0  0  0  0
   57.7416   81.2860   34.4014 H   0  0  0  0  0  0  0  0  0  0  0  0
   57.4828   80.3366   32.1125 H   0  0  0  0  0  0  0  0  0  0  0  0
   55.4645   77.6419   29.7628 H   0  0  0  0  0  0  0  0  0  0  0  0
   54.7613   82.0973   26.5750 H   0  0  0  0  0  0  0  0  0  0  0  0
   55.3572   81.5120   24.9293 H   0  0  0  0  0  0  0  0  0  0  0  0
   53.2254   83.1850   25.3567 H   0  0  0  0  0  0  0  0  0  0  0  0
   53.5545   82.1549   23.8880 H   0  0  0  0  0  0  0  0  0  0  0  0
   52.0193   81.0298   26.2170 H   0  0  0  0  0  0  0  0  0  0  0  0
   51.2103   82.0975   24.9973 H   0  0  0  0  0  0  0  0  0  0  0  0
   53.0026   78.9700   23.1502 H   0  0  0  0  0  0  0  0  0  0  0  0
   53.8092   80.5622   23.5336 H   0  0  0  0  0  0  0  0  0  0  0  0
   53.2697   78.3799   25.5856 H   0  0  0  0  0  0  0  0  0  0  0  0
   54.8294   78.6002   24.6902 H   0  0  0  0  0  0  0  0  0  0  0  0
  1  2  2  0
  2  3  1  0
  3  4  1  0
  4  5  2  0
  5  6  1  0
  6  7  2  0
  7  8  1  0
  8  9  2  0
  2 10  1  0
 10 11  1  0
 11 12  2  0
 12 13  1  0
 13 14  2  0
 14 15  1  0
 14 16  1  0
 16 17  1  0
 17 18  1  0
 18 19  1  0
 19 20  1  0
 20 21  1  0
 21 22  1  0
 22 23  1  0
 16 24  2  0
  9  4  1  0
 24 11  1  0
 23 17  1  0
  3 25  1  0
  5 26  1  0
  6 27  1  0
  7 28  1  0
  8 29  1  0
  9 30  1  0
 13 31  1  0
 18 32  1  0
 18 33  1  0
 19 34  1  0
 19 35  1  0
 20 36  1  0
 20 37  1  0
 22 38  1  0
 22 39  1  0
 23 40  1  0
 23 41  1  0
M  END
>  <meeko>  (1) 
{"is_sidechain": false}

>  <smiles>  (1) 
O=C(Nc1ccccc1)Oc1ncc(F)c(N2CCCOCC2)n1

>  <vina_score>  (1) 
-6.251

>  <job_id>  (1) 
c884cfdc1510c9c0

$$$$
