
     RDKit          3D

 56 58  0  0  0  0  0  0  0  0999 V2000
   52.9340   77.0050   25.9780 C   0  0  0  0  0  0  0  0  0  0  0  0
   53.1380   76.5170   27.4170 C   0  0  0  0  0  0  0  0  0  0  0  0
   51.7750   76.2440   28.0600 C   0  0  0  0  0  0  0  0  0  0  0  0
   54.0460   77.4850   28.2220 C   0  0  0  0  0  0  0  0  0  0  0  0
   55.0970   76.7850   29.1000 C   0  0  0  0  0  0  0  0  0  0  0  0
   55.9340   77.7990   29.8860 C   0  0  0  0  0  0  0  0  0  0  0  0
   56.5510   78.7710   28.9630 N   0  0  0  0  0  0  0  0  0  0  0  0
   57.5900   79.5160   29.5450 C   0  0  0  0  0  0  0  0  0  0  0  0
   57.6390   79.6780   30.9370 C   0  0  0  0  0  0  0  0  0  0  0  0
   58.6630   80.4030   31.5450 C   0  0  0  0  0  0  0  0  0  0  0  0
   59.6410   80.9590   30.7360 C   0  0  0  0  0  0  0  0  0  0  0  0
   60.7630   81.7500   31.3400 C   0  0  0  0  0  0  0  0  0  0  0  0
   60.7470   82.0060   32.5370 O   0  0  0  0  0  0  0  0  0  0  0  0
   61.7120   82.1040   30.4040 N   0  0  0  0  0  0  0  0  0  0  0  0
   62.8770   82.8350   30.6340 C   0  0  0  0  0  0  0  0  0  0  0  0
   62.7670   84.2170   30.6670 C   0  0  0  0  0  0  0  0  0  0  0  0
   63.9100   84.9910   30.8990 C   0  0  0  0  0  0  0  0  0  0  0  0
   65.1620   84.4030   31.1060 C   0  0  0  0  0  0  0  0  0  0  0  0
   66.3210   85.1570   31.3220 N   0  0  0  0  0  0  0  0  0  0  0  0
   66.8090   85.3110   32.6930 C   0  0  0  0  0  0  0  0  0  0  0  0
   66.6080   86.2720   30.4210 C   0  0  0  0  0  0  0  0  0  0  0  0
   65.1450   83.0050   31.0300 C   0  0  0  0  0  0  0  0  0  0  0  0
   64.0540   82.2240   30.8120 N   0  0  0  0  0  0  0  0  0  0  0  0
   59.6590   80.8310   29.3800 N   0  0  0  0  0  0  0  0  0  0  0  0
   58.6410   80.1130   28.8360 C   0  0  0  0  0  0  0  0  0  0  0  0
   55.5820   79.4970   28.1270 C   0  0  0  0  0  0  0  0  0  0  0  0
   54.7540   78.5030   27.3110 C   0  0  0  0  0  0  0  0  0  0  0  0
   52.5098   78.0198   25.9916 H   0  0  0  0  0  0  0  0  0  0  0  0
   53.9016   77.0191   25.4549 H   0  0  0  0  0  0  0  0  0  0  0  0
   52.2443   76.3262   25.4549 H   0  0  0  0  0  0  0  0  0  0  0  0
   53.6853   75.5628   27.4172 H   0  0  0  0  0  0  0  0  0  0  0  0
   51.8756   76.2642   29.1552 H   0  0  0  0  0  0  0  0  0  0  0  0
   51.0588   77.0165   27.7433 H   0  0  0  0  0  0  0  0  0  0  0  0
   51.4116   75.2552   27.7433 H   0  0  0  0  0  0  0  0  0  0  0  0
   53.3492   78.0054   28.8955 H   0  0  0  0  0  0  0  0  0  0  0  0
   54.5843   76.1181   29.8088 H   0  0  0  0  0  0  0  0  0  0  0  0
   55.7709   76.2141   28.4444 H   0  0  0  0  0  0  0  0  0  0  0  0
   55.2859   78.3328   30.5966 H   0  0  0  0  0  0  0  0  0  0  0  0
   56.7273   77.2660   30.4307 H   0  0  0  0  0  0  0  0  0  0  0  0
   56.8548   79.2246   31.5610 H   0  0  0  0  0  0  0  0  0  0  0  0
   58.6937   80.5302   32.6372 H   0  0  0  0  0  0  0  0  0  0  0  0
   61.5170   81.7840   29.4620 H   0  0  0  0  0  0  0  0  0  0  0  0
   61.7910   84.7003   30.5124 H   0  0  0  0  0  0  0  0  0  0  0  0
   63.8215   86.0872   30.9190 H   0  0  0  0  0  0  0  0  0  0  0  0
   66.0047   85.0572   33.3992 H   0  0  0  0  0  0  0  0  0  0  0  0
   67.6649   84.6393   32.8552 H   0  0  0  0  0  0  0  0  0  0  0  0
   67.1243   86.3523   32.8552 H   0  0  0  0  0  0  0  0  0  0  0  0
   66.8393   87.1706   31.0118 H   0  0  0  0  0  0  0  0  0  0  0  0
   67.4701   86.0183   29.7867 H   0  0  0  0  0  0  0  0  0  0  0  0
   65.7305   86.4660   29.7867 H   0  0  0  0  0  0  0  0  0  0  0  0
   66.1077   82.4887   31.1592 H   0  0  0  0  0  0  0  0  0  0  0  0
   58.6423   79.9897   27.7429 H   0  0  0  0  0  0  0  0  0  0  0  0
   54.9134   80.0867   28.7714 H   0  0  0  0  0  0  0  0  0  0  0  0
   56.1231   80.1668   27.4425 H   0  0  0  0  0  0  0  0  0  0  0  0
   53.9972   79.0552   26.7346 H   0  0  0  0  0  0  0  0  0  0  0  0
   55.4316   77.9556   26.6393 H   0  0  0  0  0  0  0  0  0  0  0  0
  1  2  1  0
  2  3  1  0
  2  4  1  0
  4  5  1  0
  5  6  1  0
  6  7  1  0
  7  8  1  0
  8  9  2  0
  9 10  1  0
 10 11  2  0
 11 12  1  0
 12 13  2  0
 12 14  1  0
 14 15  1  0
 15 16  2  0
 16 17  1  0
 17 18  2  0
 18 19  1  0
 19 20  1  0
 19 21  1  0
 18 22  1  0
 22 23  2  0
 11 24  1  0
 24 25  2  0
  7 26  1  0
 26 27  1  0
 27  4  1  0
 25  8  1  0
 23 15  1  0
  1 28  1  0
  1 29  1  0
  1 30  1  0
  2 31  1  0
  3 32  1  0
  3 33  1  0
  3 34  1  0
  4 35  1  0
  5 36  1  0
  5 37  1  0
  6 38  1  0
  6 39  1  0
  9 40  1  0
 10 41  1  0
 14 42  1  0
 16 43  1  0
 17 44  1  0
 20 45  1  0
 20 46  1  0
 20 47  1  0
 21 48  1  0
 21 49  1  0
 21 50  1  0
 22 51  1  0
 25 52  1  0
 26 53  1  0
 26 54  1  0
 27 55  1  0
 27 56  1  0
M  END
>  <meeko>  (1) 
{"is_sidechain": false}

>  <smiles>  (1) 
CC(C)C1CCN(c2ccc(C(=O)Nc3ccc(N(C)C)cn3)nc2)CC1

>  <vina_score>  (1) 
-7.180

>  <job_id>  (1) 
c92557f0d6118a8e

$$$$
