
     RDKit          3D

 41 43  0  0  0  0  0  0  0  0999 V2000
   51.5410   80.9820   22.3030 C   0  0  0  0  0  0  0  0  0  0  0  0
   51.6000   80.3090   23.5970 N   0  0  0  0  0  0  0  0  0  0  0  0
   52.5440   79.1740   23.5870 C   0  0  0  0  0  0  0  0  0  0  0  0
   53.9450   79.4550   24.1800 C   0  0  0  0  0  0  0  0  0  0  0  0
   53.8520   79.9780   25.5550 N   0  0  0  0  0  0  0  0  0  0  0  0
   54.8580   79.7660   26.4820 C   0  0  0  0  0  0  0  0  0  0  0  0
   56.0050   80.5730   26.5200 C   0  0  0  0  0  0  0  0  0  0  0  0
   57.0280   80.3710   27.4580 C   0  0  0  0  0  0  0  0  0  0  0  0
   56.9410   79.3510   28.4090 C   0  0  0  0  0  0  0  0  0  0  0  0
   58.0250   79.1470   29.2940 N   0  0  0  0  0  0  0  0  0  0  0  0
   58.6990   80.1410   30.0480 C   0  0  0  0  0  0  0  0  0  0  0  0
   59.6850   80.9760   29.5100 C   0  0  0  0  0  0  0  0  0  0  0  0
   60.3540   81.9060   30.3120 C   0  0  0  0  0  0  0  0  0  0  0  0
   60.0580   82.0000   31.6700 C   0  0  0  0  0  0  0  0  0  0  0  0
   59.0990   81.1590   32.2270 C   0  0  0  0  0  0  0  0  0  0  0  0
   58.4320   80.2320   31.4230 C   0  0  0  0  0  0  0  0  0  0  0  0
   55.8050   78.5300   28.3810 C   0  0  0  0  0  0  0  0  0  0  0  0
   55.5740   77.2560   29.5310 Cl  0  0  0  0  0  0  0  0  0  0  0  0
   54.7860   78.7440   27.4400 C   0  0  0  0  0  0  0  0  0  0  0  0
   52.5830   80.6360   25.9160 C   0  0  0  0  0  0  0  0  0  0  0  0
   51.9280   81.2740   24.6690 C   0  0  0  0  0  0  0  0  0  0  0  0
   51.4459   82.0669   22.4579 H   0  0  0  0  0  0  0  0  0  0  0  0
   52.4610   80.7716   21.7380 H   0  0  0  0  0  0  0  0  0  0  0  0
   50.6716   80.6147   21.7380 H   0  0  0  0  0  0  0  0  0  0  0  0
   52.0917   78.3544   24.1647 H   0  0  0  0  0  0  0  0  0  0  0  0
   52.7121   78.9360   22.5263 H   0  0  0  0  0  0  0  0  0  0  0  0
   54.5231   78.5192   24.1914 H   0  0  0  0  0  0  0  0  0  0  0  0
   54.4402   80.2122   23.5544 H   0  0  0  0  0  0  0  0  0  0  0  0
   56.1052   81.3904   25.7907 H   0  0  0  0  0  0  0  0  0  0  0  0
   57.9121   81.0254   27.4448 H   0  0  0  0  0  0  0  0  0  0  0  0
   57.8960   78.3140   29.8620 H   0  0  0  0  0  0  0  0  0  0  0  0
   59.9371   80.8997   28.4420 H   0  0  0  0  0  0  0  0  0  0  0  0
   61.1157   82.5648   29.8695 H   0  0  0  0  0  0  0  0  0  0  0  0
   60.5800   82.7358   32.2994 H   0  0  0  0  0  0  0  0  0  0  0  0
   58.8665   81.2244   33.3002 H   0  0  0  0  0  0  0  0  0  0  0  0
   57.6853   79.5623   31.8747 H   0  0  0  0  0  0  0  0  0  0  0  0
   53.9023   78.0891   27.4542 H   0  0  0  0  0  0  0  0  0  0  0  0
   51.8971   79.8894   26.3428 H   0  0  0  0  0  0  0  0  0  0  0  0
   52.7899   81.4267   26.6522 H   0  0  0  0  0  0  0  0  0  0  0  0
   50.9979   81.7701   24.9833 H   0  0  0  0  0  0  0  0  0  0  0  0
   52.6637   81.9757   24.2490 H   0  0  0  0  0  0  0  0  0  0  0  0
  1  2  1  0
  2  3  1  0
  3  4  1  0
  4  5  1  0
  5  6  1  0
  6  7  1  0
  7  8  2  0
  8  9  1  0
  9 10  1  0
 10 11  1  0
 11 12  2  0
 12 13  1  0
 13 14  2  0
 14 15  1  0
 15 16  2  0
  9 17  2  0
 17 18  1  0
 17 19  1  0
  5 20  1  0
 20 21  1  0
 21  2  1  0
 19  6  2  0
 16 11  1  0
  1 22  1  0
  1 23  1  0
  1 24  1  0
  3 25  1  0
  3 26  1  0
  4 27  1  0
  4 28  1  0
  7 29  1  0
  8 30  1  0
 10 31  1  0
 12 32  1  0
 13 33  1  0
 14 34  1  0
 15 35  1  0
 16 36  1  0
 19 37  1  0
 20 38  1  0
 20 39  1  0
 21 40  1  0
 21 41  1  0
M  END
>  <meeko>  (1) 
{"is_sidechain": false}

>  <smiles>  (1) 
CN1CCN(c2ccc(Nc3ccccc3)c(Cl)c2)CC1

>  <vina_score>  (1) 
-7.813

>  <job_id>  (1) 
c936c47cccc1a293

$$$$
