
     RDKit          3D

 67 69  0  0  0  0  0  0  0  0999 V2000
   60.4350   85.2860   35.6860 C   0  0  0  0  0  0  0  0  0  0  0  0
   60.5360   84.0730   34.8890 N   0  0  0  0  0  0  0  0  0  0  0  0
   61.7810   83.3290   35.1330 C   0  0  0  0  0  0  0  0  0  0  0  0
   62.8260   83.4640   34.0040 C   0  0  0  0  0  0  0  0  0  0  0  0
   62.2050   84.3480   32.5310 S   0  0  0  0  0  0  0  0  0  0  0  0
   61.8110   82.9820   31.5390 C   0  0  0  0  0  0  0  0  0  0  0  0
   62.5650   82.1860   31.0190 O   0  0  0  0  0  0  0  0  0  0  0  0
   60.3070   83.0090   31.4000 C   0  0  0  0  0  0  0  0  0  0  0  0
   59.6850   83.9550   31.8720 O   0  0  0  0  0  0  0  0  0  0  0  0
   59.6200   81.8710   30.7320 C   0  0  0  0  0  0  0  0  0  0  0  0
   58.9400   80.9430   31.5250 C   0  0  0  0  0  0  0  0  0  0  0  0
   58.2760   79.8570   30.9380 C   0  0  0  0  0  0  0  0  0  0  0  0
   58.2760   79.6700   29.5530 C   0  0  0  0  0  0  0  0  0  0  0  0
   57.6340   78.6090   28.9070 N   0  0  0  0  0  0  0  0  0  0  0  0
   56.3090   78.3360   28.5810 C   0  0  0  0  0  0  0  0  0  0  0  0
   55.6700   77.5240   29.4440 N   0  0  0  0  0  0  0  0  0  0  0  0
   54.3810   77.2230   29.1750 C   0  0  0  0  0  0  0  0  0  0  0  0
   53.7080   77.7050   28.0850 C   0  0  0  0  0  0  0  0  0  0  0  0
   52.4260   77.3920   27.8600 F   0  0  0  0  0  0  0  0  0  0  0  0
   54.4340   78.5320   27.2600 C   0  0  0  0  0  0  0  0  0  0  0  0
   53.8900   79.1080   26.0410 C   0  0  0  0  0  0  0  0  0  0  0  0
   53.3920   78.4530   24.9340 C   0  0  0  0  0  0  0  0  0  0  0  0
   52.9330   79.3320   24.0010 N   0  0  0  0  0  0  0  0  0  0  0  0
   53.1680   80.5340   24.4850 C   0  0  0  0  0  0  0  0  0  0  0  0
   52.7870   81.7850   23.7800 C   0  0  0  0  0  0  0  0  0  0  0  0
   53.7940   80.4550   25.7180 N   0  0  0  0  0  0  0  0  0  0  0  0
   54.3420   81.5540   26.5140 C   0  0  0  0  0  0  0  0  0  0  0  0
   55.5650   82.1930   25.8550 C   0  0  0  0  0  0  0  0  0  0  0  0
   53.3020   82.5920   26.9330 C   0  0  0  0  0  0  0  0  0  0  0  0
   55.7260   78.8500   27.4890 N   0  0  0  0  0  0  0  0  0  0  0  0
   58.9660   80.6110   28.7700 C   0  0  0  0  0  0  0  0  0  0  0  0
   59.6320   81.7010   29.3460 C   0  0  0  0  0  0  0  0  0  0  0  0
   61.3580   81.8860   35.3380 C   0  0  0  0  0  0  0  0  0  0  0  0
   60.0830   81.3740   34.7440 C   0  0  0  0  0  0  0  0  0  0  0  0
   62.3600   80.7630   36.3400 S   0  0  0  0  0  4  0  0  0  0  0  0
   63.0590   79.8580   34.9350 C   0  0  0  0  0  0  0  0  0  0  0  0
   60.4567   85.0255   36.7545 H   0  0  0  0  0  0  0  0  0  0  0  0
   61.2810   85.9493   35.4530 H   0  0  0  0  0  0  0  0  0  0  0  0
   59.4909   85.8003   35.4530 H   0  0  0  0  0  0  0  0  0  0  0  0
   60.4670   84.3020   33.8970 H   0  0  0  0  0  0  0  0  0  0  0  0
   62.2984   83.7414   36.0118 H   0  0  0  0  0  0  0  0  0  0  0  0
   63.6941   84.0127   34.3980 H   0  0  0  0  0  0  0  0  0  0  0  0
   63.0849   82.4446   33.6819 H   0  0  0  0  0  0  0  0  0  0  0  0
   58.9256   81.0656   32.6181 H   0  0  0  0  0  0  0  0  0  0  0  0
   57.7449   79.1384   31.5796 H   0  0  0  0  0  0  0  0  0  0  0  0
   58.2140   77.8480   28.5840 H   0  0  0  0  0  0  0  0  0  0  0  0
   53.8450   76.5568   29.8670 H   0  0  0  0  0  0  0  0  0  0  0  0
   53.3686   77.3592   24.8195 H   0  0  0  0  0  0  0  0  0  0  0  0
   52.5496   82.5645   24.5189 H   0  0  0  0  0  0  0  0  0  0  0  0
   53.6238   82.1200   23.1496 H   0  0  0  0  0  0  0  0  0  0  0  0
   51.9055   81.5967   23.1496 H   0  0  0  0  0  0  0  0  0  0  0  0
   54.6836   81.0907   27.4514 H   0  0  0  0  0  0  0  0  0  0  0  0
   56.2544   82.5532   26.6328 H   0  0  0  0  0  0  0  0  0  0  0  0
   56.0761   81.4467   25.2291 H   0  0  0  0  0  0  0  0  0  0  0  0
   55.2443   83.0388   25.2291 H   0  0  0  0  0  0  0  0  0  0  0  0
   53.2537   82.6402   28.0309 H   0  0  0  0  0  0  0  0  0  0  0  0
   53.5863   83.5772   26.5349 H   0  0  0  0  0  0  0  0  0  0  0  0
   52.3173   82.3059   26.5349 H   0  0  0  0  0  0  0  0  0  0  0  0
   58.9837   80.4888   27.6770 H   0  0  0  0  0  0  0  0  0  0  0  0
   60.1635   82.4218   28.7073 H   0  0  0  0  0  0  0  0  0  0  0  0
   59.3888   81.0952   35.5504 H   0  0  0  0  0  0  0  0  0  0  0  0
   59.6269   82.1587   34.1225 H   0  0  0  0  0  0  0  0  0  0  0  0
   60.2963   80.4918   34.1225 H   0  0  0  0  0  0  0  0  0  0  0  0
   61.4200   79.8640   36.7130 H   0  0  0  0  0  0  0  0  0  0  0  0
   63.6922   79.0382   35.3053 H   0  0  0  0  0  0  0  0  0  0  0  0
   62.2438   79.4441   34.3233 H   0  0  0  0  0  0  0  0  0  0  0  0
   63.6655   80.5421   34.3233 H   0  0  0  0  0  0  0  0  0  0  0  0
  1  2  1  0
  2  3  1  0
  3  4  1  0
  4  5  1  0
  5  6  1  0
  6  7  2  0
  6  8  1  0
  8  9  2  0
  8 10  1  0
 10 11  1  0
 11 12  2  0
 12 13  1  0
 13 14  1  0
 14 15  1  0
 15 16  2  0
 16 17  1  0
 17 18  2  0
 18 19  1  0
 18 20  1  0
 20 21  1  0
 21 22  2  0
 22 23  1  0
 23 24  2  0
 24 25  1  0
 24 26  1  0
 26 27  1  0
 27 28  1  0
 27 29  1  0
 20 30  2  0
 13 31  2  0
 31 32  1  0
  3 33  1  0
 33 34  1  0
 33 35  2  3
 35 36  1  0
 32 10  2  0
 30 15  1  0
 26 21  1  0
  1 37  1  0
  1 38  1  0
  1 39  1  0
  2 40  1  0
  3 41  1  0
  4 42  1  0
  4 43  1  0
 11 44  1  0
 12 45  1  0
 14 46  1  0
 17 47  1  0
 22 48  1  0
 25 49  1  0
 25 50  1  0
 25 51  1  0
 27 52  1  0
 28 53  1  0
 28 54  1  0
 28 55  1  0
 29 56  1  0
 29 57  1  0
 29 58  1  0
 31 59  1  0
 32 60  1  0
 34 61  1  0
 34 62  1  0
 34 63  1  0
 35 64  1  0
 36 65  1  0
 36 66  1  0
 36 67  1  0
M  END
>  <meeko>  (1) 
{"is_sidechain": false}

>  <smiles>  (1) 
CNC(CSC(=O)C(=O)c1ccc(Nc2ncc(F)c(-c3cnc(C)n3C(C)C)n2)cc1)C(C)=[SH]C

>  <vina_score>  (1) 
-8.215

>  <job_id>  (1) 
c98f6d0838f68ce3

$$$$
