
     RDKit          3D

 58 61  0  0  0  0  0  0  0  0999 V2000
   51.1830   76.4820   28.5040 C   0  0  0  0  0  0  0  0  0  0  0  0
   52.3660   75.6430   28.0180 C   0  0  0  0  0  0  0  0  0  0  0  0
   52.2470   75.3570   26.5200 C   0  0  0  0  0  0  0  0  0  0  0  0
   53.6810   76.2720   28.3670 C   0  0  0  0  0  0  0  0  0  0  0  0
   54.7110   75.7180   29.1770 C   0  0  0  0  0  0  0  0  0  0  0  0
   55.7750   76.5190   29.3020 N   0  0  0  0  0  0  0  0  0  0  0  0
   55.4080   77.6000   28.5790 N   0  0  0  0  0  0  0  0  0  0  0  0
   56.2180   78.7320   28.3940 C   0  0  0  0  0  0  0  0  0  0  0  0
   57.4430   78.7520   29.0230 N   0  0  0  0  0  0  0  0  0  0  0  0
   58.5180   79.6110   28.5900 C   0  0  0  0  0  0  0  0  0  0  0  0
   58.9760   80.4640   29.7460 C   0  0  0  0  0  0  0  0  0  0  0  0
   58.5410   80.1890   31.0480 C   0  0  0  0  0  0  0  0  0  0  0  0
   58.9730   80.9700   32.1230 C   0  0  0  0  0  0  0  0  0  0  0  0
   59.8870   82.0080   31.9280 C   0  0  0  0  0  0  0  0  0  0  0  0
   60.2240   82.8590   32.9860 N   0  0  0  0  0  0  0  0  0  0  0  0
   60.2830   82.3140   30.6250 C   0  0  0  0  0  0  0  0  0  0  0  0
   59.8530   81.5370   29.5430 C   0  0  0  0  0  0  0  0  0  0  0  0
   55.7700   79.6930   27.6390 N   0  0  0  0  0  0  0  0  0  0  0  0
   54.5160   79.5460   27.0810 C   0  0  0  0  0  0  0  0  0  0  0  0
   54.0910   80.5840   26.3190 O   0  0  0  0  0  0  0  0  0  0  0  0
   52.9170   80.4570   25.4820 C   0  0  0  0  0  0  0  0  0  0  0  0
   52.3570   81.8670   25.2510 C   0  0  0  0  0  0  0  0  0  0  0  0
   52.9270   82.4820   23.9760 C   0  0  0  0  0  0  0  0  0  0  0  0
   52.6320   81.6990   22.7670 N   0  0  0  0  0  0  0  0  0  0  0  0
   51.5250   82.2610   22.0000 C   0  0  0  0  0  0  0  0  0  0  0  0
   52.4220   80.2680   23.0210 C   0  0  0  0  0  0  0  0  0  0  0  0
   53.2920   79.7640   24.1660 C   0  0  0  0  0  0  0  0  0  0  0  0
   53.7250   78.5230   27.2150 N   0  0  0  0  0  0  0  0  0  0  0  0
   54.1820   77.5030   27.9860 C   0  0  0  0  0  0  0  0  0  0  0  0
   51.1682   76.4925   29.6039 H   0  0  0  0  0  0  0  0  0  0  0  0
   51.2846   77.5110   28.1288 H   0  0  0  0  0  0  0  0  0  0  0  0
   50.2454   76.0458   28.1288 H   0  0  0  0  0  0  0  0  0  0  0  0
   52.3338   74.6791   28.5470 H   0  0  0  0  0  0  0  0  0  0  0  0
   51.8283   74.3508   26.3709 H   0  0  0  0  0  0  0  0  0  0  0  0
   51.5843   76.1023   26.0559 H   0  0  0  0  0  0  0  0  0  0  0  0
   53.2428   75.4123   26.0559 H   0  0  0  0  0  0  0  0  0  0  0  0
   54.6395   74.7290   29.6533 H   0  0  0  0  0  0  0  0  0  0  0  0
   57.7240   77.8580   29.4280 H   0  0  0  0  0  0  0  0  0  0  0  0
   59.3573   78.9963   28.2326 H   0  0  0  0  0  0  0  0  0  0  0  0
   58.1643   80.2583   27.7740 H   0  0  0  0  0  0  0  0  0  0  0  0
   57.8524   79.3499   31.2264 H   0  0  0  0  0  0  0  0  0  0  0  0
   58.5893   80.7653   33.1334 H   0  0  0  0  0  0  0  0  0  0  0  0
   59.5260   83.5710   33.1780 H   0  0  0  0  0  0  0  0  0  0  0  0
   61.1600   83.2480   32.9150 H   0  0  0  0  0  0  0  0  0  0  0  0
   60.9414   83.1768   30.4461 H   0  0  0  0  0  0  0  0  0  0  0  0
   60.2058   81.7704   28.5276 H   0  0  0  0  0  0  0  0  0  0  0  0
   52.1455   79.8374   25.9625 H   0  0  0  0  0  0  0  0  0  0  0  0
   51.2620   81.8089   25.1635 H   0  0  0  0  0  0  0  0  0  0  0  0
   52.6435   82.5008   26.1032 H   0  0  0  0  0  0  0  0  0  0  0  0
   52.4993   83.4879   23.8528 H   0  0  0  0  0  0  0  0  0  0  0  0
   54.0210   82.5059   24.0882 H   0  0  0  0  0  0  0  0  0  0  0  0
   50.7608   82.6490   22.6896 H   0  0  0  0  0  0  0  0  0  0  0  0
   51.8965   83.0797   21.3661 H   0  0  0  0  0  0  0  0  0  0  0  0
   51.0833   81.4780   21.3661 H   0  0  0  0  0  0  0  0  0  0  0  0
   51.3651   80.1030   23.2773 H   0  0  0  0  0  0  0  0  0  0  0  0
   52.6987   79.7146   22.1115 H   0  0  0  0  0  0  0  0  0  0  0  0
   53.1492   78.6789   24.2766 H   0  0  0  0  0  0  0  0  0  0  0  0
   54.3434   79.9908   23.9357 H   0  0  0  0  0  0  0  0  0  0  0  0
  1  2  1  0
  2  3  1  0
  2  4  1  0
  4  5  1  0
  5  6  2  0
  6  7  1  0
  7  8  1  0
  8  9  1  0
  9 10  1  0
 10 11  1  0
 11 12  1  0
 12 13  2  0
 13 14  1  0
 14 15  1  0
 14 16  2  0
 16 17  1  0
  8 18  2  0
 18 19  1  0
 19 20  1  0
 20 21  1  0
 21 22  1  0
 22 23  1  0
 23 24  1  0
 24 25  1  0
 24 26  1  0
 26 27  1  0
 19 28  2  0
 28 29  1  0
 29  4  2  0
 29  7  1  0
 17 11  2  0
 27 21  1  0
  1 30  1  0
  1 31  1  0
  1 32  1  0
  2 33  1  0
  3 34  1  0
  3 35  1  0
  3 36  1  0
  5 37  1  0
  9 38  1  0
 10 39  1  0
 10 40  1  0
 12 41  1  0
 13 42  1  0
 15 43  1  0
 15 44  1  0
 16 45  1  0
 17 46  1  0
 21 47  1  0
 22 48  1  0
 22 49  1  0
 23 50  1  0
 23 51  1  0
 25 52  1  0
 25 53  1  0
 25 54  1  0
 26 55  1  0
 26 56  1  0
 27 57  1  0
 27 58  1  0
M  END
>  <meeko>  (1) 
{"is_sidechain": false}

>  <smiles>  (1) 
CC(C)c1cnn2c(NCc3ccc(N)cc3)nc(OC3CCN(C)CC3)nc12

>  <vina_score>  (1) 
-9.405

>  <job_id>  (1) 
c9988d12fa8b7d24

$$$$
