
     RDKit          3D

 44 48  0  0  0  0  0  0  0  0999 V2000
   53.3910   83.2420   26.6400 C   0  0  0  0  0  0  0  0  0  0  0  0
   53.5140   81.8020   26.5860 N   0  0  0  0  0  0  0  0  0  0  0  0
   53.9770   81.0220   27.6110 C   0  0  0  0  0  0  0  0  0  0  0  0
   53.9620   79.7090   27.1910 C   0  0  0  0  0  0  0  0  0  0  0  0
   54.3760   78.6110   27.9940 C   0  0  0  0  0  0  0  0  0  0  0  0
   55.5640   78.3670   28.5750 C   0  0  0  0  0  0  0  0  0  0  0  0
   56.7740   79.1100   28.5200 C   0  0  0  0  0  0  0  0  0  0  0  0
   57.4460   79.4490   27.3630 C   0  0  0  0  0  0  0  0  0  0  0  0
   58.5600   80.1710   27.6450 O   0  0  0  0  0  0  0  0  0  0  0  0
   58.6120   80.3080   28.9980 C   0  0  0  0  0  0  0  0  0  0  0  0
   59.6030   80.9970   29.6950 C   0  0  0  0  0  0  0  0  0  0  0  0
   59.4900   81.0480   31.0940 C   0  0  0  0  0  0  0  0  0  0  0  0
   60.5590   81.7450   31.8970 C   0  0  0  0  0  0  0  0  0  0  0  0
   61.8020   81.7320   31.2060 O   0  0  0  0  0  0  0  0  0  0  0  0
   58.4200   80.3960   31.7280 C   0  0  0  0  0  0  0  0  0  0  0  0
   57.4350   79.7100   30.9980 C   0  0  0  0  0  0  0  0  0  0  0  0
   57.5340   79.6630   29.5940 C   0  0  0  0  0  0  0  0  0  0  0  0
   55.4340   77.0770   29.2970 C   0  0  0  0  0  0  0  0  0  0  0  0
   56.3100   76.4820   29.8950 O   0  0  0  0  0  0  0  0  0  0  0  0
   54.1640   76.6530   29.1470 N   0  0  0  0  0  0  0  0  0  0  0  0
   53.4800   77.4760   28.3290 C   0  0  0  0  0  0  0  0  0  0  0  0
   52.3430   77.2990   27.9320 O   0  0  0  0  0  0  0  0  0  0  0  0
   53.4800   79.6920   25.8450 C   0  0  0  0  0  0  0  0  0  0  0  0
   53.2650   78.6830   24.8820 C   0  0  0  0  0  0  0  0  0  0  0  0
   52.7650   79.0350   23.6300 C   0  0  0  0  0  0  0  0  0  0  0  0
   52.5600   78.0750   22.7170 F   0  0  0  0  0  0  0  0  0  0  0  0
   52.4780   80.3510   23.3030 C   0  0  0  0  0  0  0  0  0  0  0  0
   52.6900   81.3720   24.2310 C   0  0  0  0  0  0  0  0  0  0  0  0
   53.1960   81.0200   25.4950 C   0  0  0  0  0  0  0  0  0  0  0  0
   53.3631   83.5685   27.6901 H   0  0  0  0  0  0  0  0  0  0  0  0
   54.2531   83.7028   26.1355 H   0  0  0  0  0  0  0  0  0  0  0  0
   52.4633   83.5499   26.1355 H   0  0  0  0  0  0  0  0  0  0  0  0
   54.3042   81.3804   28.5982 H   0  0  0  0  0  0  0  0  0  0  0  0
   57.1223   79.1714   26.3490 H   0  0  0  0  0  0  0  0  0  0  0  0
   60.4399   81.4813   29.1705 H   0  0  0  0  0  0  0  0  0  0  0  0
   60.2554   82.7876   32.0726 H   0  0  0  0  0  0  0  0  0  0  0  0
   60.6826   81.2148   32.8528 H   0  0  0  0  0  0  0  0  0  0  0  0
   62.0110   80.8010   31.0290 H   0  0  0  0  0  0  0  0  0  0  0  0
   58.3512   80.4231   32.8255 H   0  0  0  0  0  0  0  0  0  0  0  0
   56.5989   79.2169   31.5154 H   0  0  0  0  0  0  0  0  0  0  0  0
   53.8130   75.7750   29.4910 H   0  0  0  0  0  0  0  0  0  0  0  0
   53.4893   77.6320   25.1168 H   0  0  0  0  0  0  0  0  0  0  0  0
   52.0807   80.5923   22.3060 H   0  0  0  0  0  0  0  0  0  0  0  0
   52.4680   82.4200   23.9812 H   0  0  0  0  0  0  0  0  0  0  0  0
  1  2  1  0
  2  3  1  0
  3  4  2  0
  4  5  1  0
  5  6  2  0
  6  7  1  0
  7  8  2  0
  8  9  1  0
  9 10  1  0
 10 11  2  0
 11 12  1  0
 12 13  1  0
 13 14  1  0
 12 15  2  0
 15 16  1  0
 16 17  2  0
  6 18  1  0
 18 19  2  0
 18 20  1  0
 20 21  1  0
 21 22  2  0
  4 23  1  0
 23 24  2  0
 24 25  1  0
 25 26  1  0
 25 27  2  0
 27 28  1  0
 28 29  2  0
 29  2  1  0
 21  5  1  0
 29 23  1  0
 17  7  1  0
 17 10  1  0
  1 30  1  0
  1 31  1  0
  1 32  1  0
  3 33  1  0
  8 34  1  0
 11 35  1  0
 13 36  1  0
 13 37  1  0
 14 38  1  0
 15 39  1  0
 16 40  1  0
 20 41  1  0
 24 42  1  0
 27 43  1  0
 28 44  1  0
M  END
>  <meeko>  (1) 
{"is_sidechain": false}

>  <smiles>  (1) 
Cn1cc(C2=C(c3coc4cc(CO)ccc34)C(=O)NC2=O)c2cc(F)ccc21

>  <vina_score>  (1) 
-8.900

>  <job_id>  (1) 
c9ab51c9d81e4784

$$$$
