
     RDKit          3D

 44 46  0  0  0  0  0  0  0  0999 V2000
   52.9060   77.1090   26.0510 C   0  0  0  0  0  0  0  0  0  0  0  0
   53.2560   76.9250   27.4580 N   0  0  0  0  0  0  0  0  0  0  0  0
   52.9370   75.6130   28.0200 C   0  0  0  0  0  0  0  0  0  0  0  0
   54.3330   77.6440   27.9880 C   0  0  0  0  0  0  0  0  0  0  0  0
   54.9650   77.2730   29.1870 C   0  0  0  0  0  0  0  0  0  0  0  0
   56.0580   77.9810   29.7130 C   0  0  0  0  0  0  0  0  0  0  0  0
   56.5820   79.0980   29.0570 C   0  0  0  0  0  0  0  0  0  0  0  0
   57.7260   79.8440   29.6030 C   0  0  0  0  0  0  0  0  0  0  0  0
   57.9960   79.8570   30.9760 C   0  0  0  0  0  0  0  0  0  0  0  0
   59.0890   80.5700   31.4900 C   0  0  0  0  0  0  0  0  0  0  0  0
   59.9520   81.3040   30.6620 C   0  0  0  0  0  0  0  0  0  0  0  0
   61.0370   81.9910   31.2310 N   0  0  0  0  0  0  0  0  0  0  0  0
   61.4130   83.2970   30.6480 C   0  0  0  0  0  0  0  0  0  0  0  0
   62.7540   83.7850   31.2430 C   0  0  0  0  0  0  0  0  0  0  0  0
   62.7400   83.8770   32.7150 N   0  0  0  0  0  0  0  0  0  0  0  0
   62.3410   82.5700   33.2720 C   0  0  0  0  0  0  0  0  0  0  0  0
   61.0010   82.0360   32.7140 C   0  0  0  0  0  0  0  0  0  0  0  0
   59.6850   81.2720   29.2880 C   0  0  0  0  0  0  0  0  0  0  0  0
   58.5920   80.5610   28.7680 C   0  0  0  0  0  0  0  0  0  0  0  0
   55.9770   79.4730   27.8540 C   0  0  0  0  0  0  0  0  0  0  0  0
   54.8860   78.7580   27.3330 C   0  0  0  0  0  0  0  0  0  0  0  0
   51.9345   77.6197   25.9786 H   0  0  0  0  0  0  0  0  0  0  0  0
   53.6780   77.7179   25.5577 H   0  0  0  0  0  0  0  0  0  0  0  0
   52.8421   76.1279   25.5577 H   0  0  0  0  0  0  0  0  0  0  0  0
   52.9512   75.6713   29.1184 H   0  0  0  0  0  0  0  0  0  0  0  0
   51.9372   75.3026   27.6822 H   0  0  0  0  0  0  0  0  0  0  0  0
   53.6827   74.8783   27.6822 H   0  0  0  0  0  0  0  0  0  0  0  0
   54.5897   76.3955   29.7339 H   0  0  0  0  0  0  0  0  0  0  0  0
   56.5102   77.6499   30.6595 H   0  0  0  0  0  0  0  0  0  0  0  0
   57.3414   79.2998   31.6623 H   0  0  0  0  0  0  0  0  0  0  0  0
   59.2752   80.5533   32.5740 H   0  0  0  0  0  0  0  0  0  0  0  0
   61.5169   83.1913   29.5580 H   0  0  0  0  0  0  0  0  0  0  0  0
   60.6292   84.0322   30.8827 H   0  0  0  0  0  0  0  0  0  0  0  0
   63.5450   83.0812   30.9447 H   0  0  0  0  0  0  0  0  0  0  0  0
   62.9330   84.7986   30.8549 H   0  0  0  0  0  0  0  0  0  0  0  0
   63.6790   84.1030   33.0410 H   0  0  0  0  0  0  0  0  0  0  0  0
   63.1293   81.8388   33.0397 H   0  0  0  0  0  0  0  0  0  0  0  0
   62.2035   82.7116   34.3541 H   0  0  0  0  0  0  0  0  0  0  0  0
   60.8252   81.0221   33.1028 H   0  0  0  0  0  0  0  0  0  0  0  0
   60.1904   82.7090   33.0301 H   0  0  0  0  0  0  0  0  0  0  0  0
   60.3475   81.8170   28.5995 H   0  0  0  0  0  0  0  0  0  0  0  0
   58.4121   80.5671   27.6828 H   0  0  0  0  0  0  0  0  0  0  0  0
   56.3626   80.3446   27.3049 H   0  0  0  0  0  0  0  0  0  0  0  0
   54.4482   79.0818   26.3772 H   0  0  0  0  0  0  0  0  0  0  0  0
  1  2  1  0
  2  3  1  0
  2  4  1  0
  4  5  1  0
  5  6  2  0
  6  7  1  0
  7  8  1  0
  8  9  1  0
  9 10  2  0
 10 11  1  0
 11 12  1  0
 12 13  1  0
 13 14  1  0
 14 15  1  0
 15 16  1  0
 16 17  1  0
 11 18  2  0
 18 19  1  0
  7 20  2  0
 20 21  1  0
 21  4  2  0
 19  8  2  0
 17 12  1  0
  1 22  1  0
  1 23  1  0
  1 24  1  0
  3 25  1  0
  3 26  1  0
  3 27  1  0
  5 28  1  0
  6 29  1  0
  9 30  1  0
 10 31  1  0
 13 32  1  0
 13 33  1  0
 14 34  1  0
 14 35  1  0
 15 36  1  0
 16 37  1  0
 16 38  1  0
 17 39  1  0
 17 40  1  0
 18 41  1  0
 19 42  1  0
 20 43  1  0
 21 44  1  0
M  END
>  <meeko>  (1) 
{"is_sidechain": false}

>  <smiles>  (1) 
CN(C)c1ccc(-c2ccc(N3CCNCC3)cc2)cc1

>  <vina_score>  (1) 
-7.077

>  <job_id>  (1) 
c9bf4c03e2696b2f

$$$$
