
     RDKit          3D

 69 73  0  0  0  0  0  0  0  0999 V2000
   52.0280   83.2000   22.6260 C   0  0  0  0  0  0  0  0  0  0  0  0
   52.4780   82.0530   23.4560 C   0  0  0  0  0  0  0  0  0  0  0  0
   52.4450   80.8030   23.0420 N   0  0  0  0  0  0  0  0  0  0  0  0
   52.9440   80.0430   24.0670 C   0  0  0  0  0  0  0  0  0  0  0  0
   53.1460   78.6580   24.1610 C   0  0  0  0  0  0  0  0  0  0  0  0
   52.8300   77.8410   23.1450 F   0  0  0  0  0  0  0  0  0  0  0  0
   53.6850   78.1110   25.3280 C   0  0  0  0  0  0  0  0  0  0  0  0
   54.0380   78.9140   26.4280 C   0  0  0  0  0  0  0  0  0  0  0  0
   54.6170   78.2940   27.6400 C   0  0  0  0  0  0  0  0  0  0  0  0
   55.8740   78.7020   27.9500 N   0  0  0  0  0  0  0  0  0  0  0  0
   56.4740   78.1890   29.0380 C   0  0  0  0  0  0  0  0  0  0  0  0
   57.7490   78.5660   29.4090 N   0  0  0  0  0  0  0  0  0  0  0  0
   58.3660   79.7680   29.7050 C   0  0  0  0  0  0  0  0  0  0  0  0
   58.9660   80.5940   28.7630 C   0  0  0  0  0  0  0  0  0  0  0  0
   59.5630   81.7870   29.1700 C   0  0  0  0  0  0  0  0  0  0  0  0
   59.5430   82.1470   30.5160 C   0  0  0  0  0  0  0  0  0  0  0  0
   58.9340   81.2660   31.4050 C   0  0  0  0  0  0  0  0  0  0  0  0
   58.3480   80.1040   31.0140 N   0  0  0  0  0  0  0  0  0  0  0  0
   58.8410   81.6070   32.8680 C   0  0  0  0  0  0  0  0  0  0  0  0
   59.8000   82.7340   33.2600 C   0  0  0  0  0  0  0  0  0  0  0  0
   59.8040   83.8740   32.3270 N   0  0  0  0  0  0  0  0  0  0  0  0
   58.5240   84.6060   32.2490 C   0  0  0  0  0  0  0  0  0  0  0  0
   58.7030   86.0960   31.9210 C   0  0  0  0  0  0  0  0  0  0  0  0
   57.8660   86.9920   32.8500 C   0  0  0  0  0  0  0  0  0  0  0  0
   56.4560   86.9820   32.5250 N   0  0  0  0  0  0  0  0  0  0  0  0
   57.9360   86.6070   34.2560 N   0  0  0  0  0  0  0  0  0  0  0  0
   56.6850   86.9930   34.8980 O   0  0  0  0  0  0  0  0  0  0  0  0
   60.2290   83.4010   30.9940 C   0  0  0  0  0  0  0  0  0  0  0  0
   55.8860   77.2790   29.8320 N   0  0  0  0  0  0  0  0  0  0  0  0
   54.6400   76.8840   29.5020 C   0  0  0  0  0  0  0  0  0  0  0  0
   53.9570   77.3620   28.4140 C   0  0  0  0  0  0  0  0  0  0  0  0
   52.7240   76.9170   28.1380 F   0  0  0  0  0  0  0  0  0  0  0  0
   53.8390   80.3100   26.3310 C   0  0  0  0  0  0  0  0  0  0  0  0
   53.2880   80.8460   25.1500 C   0  0  0  0  0  0  0  0  0  0  0  0
   52.9700   82.1330   24.7450 N   0  0  0  0  0  0  0  0  0  0  0  0
   53.1680   83.3240   25.5690 C   0  0  0  0  0  0  0  0  0  0  0  0
   54.6340   83.7130   25.7700 C   0  0  0  0  0  0  0  0  0  0  0  0
   52.4130   83.2320   26.8950 C   0  0  0  0  0  0  0  0  0  0  0  0
   51.7053   84.0225   23.2813 H   0  0  0  0  0  0  0  0  0  0  0  0
   52.8588   83.5414   21.9911 H   0  0  0  0  0  0  0  0  0  0  0  0
   51.1866   82.8854   21.9911 H   0  0  0  0  0  0  0  0  0  0  0  0
   53.8375   77.0233   25.3885 H   0  0  0  0  0  0  0  0  0  0  0  0
   58.3850   77.7870   29.4610 H   0  0  0  0  0  0  0  0  0  0  0  0
   58.9703   80.3084   27.7007 H   0  0  0  0  0  0  0  0  0  0  0  0
   60.0480   82.4416   28.4309 H   0  0  0  0  0  0  0  0  0  0  0  0
   57.8118   81.9229   33.0936 H   0  0  0  0  0  0  0  0  0  0  0  0
   59.1192   80.7111   33.4424 H   0  0  0  0  0  0  0  0  0  0  0  0
   59.5104   83.1032   34.2549 H   0  0  0  0  0  0  0  0  0  0  0  0
   60.8137   82.3073   33.2428 H   0  0  0  0  0  0  0  0  0  0  0  0
   57.9048   84.1464   31.4646 H   0  0  0  0  0  0  0  0  0  0  0  0
   58.0479   84.5421   33.2386 H   0  0  0  0  0  0  0  0  0  0  0  0
   59.7648   86.3600   32.0340 H   0  0  0  0  0  0  0  0  0  0  0  0
   58.3612   86.2615   30.8886 H   0  0  0  0  0  0  0  0  0  0  0  0
   58.3113   87.9855   32.6929 H   0  0  0  0  0  0  0  0  0  0  0  0
   55.9630   86.9210   33.4150 H   0  0  0  0  0  0  0  0  0  0  0  0
   56.2780   86.0890   32.0710 H   0  0  0  0  0  0  0  0  0  0  0  0
   57.8940   85.5860   34.3080 H   0  0  0  0  0  0  0  0  0  0  0  0
   56.9430   87.0040   35.8410 H   0  0  0  0  0  0  0  0  0  0  0  0
   60.0245   84.2005   30.2667 H   0  0  0  0  0  0  0  0  0  0  0  0
   61.2973   83.1536   31.0811 H   0  0  0  0  0  0  0  0  0  0  0  0
   54.1446   76.1377   30.1405 H   0  0  0  0  0  0  0  0  0  0  0  0
   54.1111   80.9703   27.1676 H   0  0  0  0  0  0  0  0  0  0  0  0
   52.7302   84.1504   24.9898 H   0  0  0  0  0  0  0  0  0  0  0  0
   54.8536   83.7713   26.8463 H   0  0  0  0  0  0  0  0  0  0  0  0
   55.2815   82.9556   25.3041 H   0  0  0  0  0  0  0  0  0  0  0  0
   54.8208   84.6918   25.3041 H   0  0  0  0  0  0  0  0  0  0  0  0
   53.1249   83.3187   27.7291 H   0  0  0  0  0  0  0  0  0  0  0  0
   51.6768   84.0471   26.9551 H   0  0  0  0  0  0  0  0  0  0  0  0
   51.8940   82.2640   26.9551 H   0  0  0  0  0  0  0  0  0  0  0  0
  1  2  1  0
  2  3  2  0
  3  4  1  0
  4  5  2  0
  5  6  1  0
  5  7  1  0
  7  8  2  0
  8  9  1  0
  9 10  2  0
 10 11  1  0
 11 12  1  0
 12 13  1  0
 13 14  1  0
 14 15  2  0
 15 16  1  0
 16 17  2  0
 17 18  1  0
 17 19  1  0
 19 20  1  0
 20 21  1  0
 21 22  1  0
 22 23  1  0
 23 24  1  0
 24 25  1  0
 24 26  1  0
 26 27  1  0
 21 28  1  0
 11 29  2  0
 29 30  1  0
 30 31  2  0
 31 32  1  0
  8 33  1  0
 33 34  2  0
 34 35  1  0
 35 36  1  0
 36 37  1  0
 36 38  1  0
 35  2  1  0
 34  4  1  0
 31  9  1  0
 18 13  2  0
 28 16  1  0
  1 39  1  0
  1 40  1  0
  1 41  1  0
  7 42  1  0
 12 43  1  0
 14 44  1  0
 15 45  1  0
 19 46  1  0
 19 47  1  0
 20 48  1  0
 20 49  1  0
 22 50  1  0
 22 51  1  0
 23 52  1  0
 23 53  1  0
 24 54  1  0
 25 55  1  0
 25 56  1  0
 26 57  1  0
 27 58  1  0
 28 59  1  0
 28 60  1  0
 30 61  1  0
 33 62  1  0
 36 63  1  0
 37 64  1  0
 37 65  1  0
 37 66  1  0
 38 67  1  0
 38 68  1  0
 38 69  1  0
M  END
>  <meeko>  (1) 
{"is_sidechain": false}

>  <smiles>  (1) 
Cc1nc2c(F)cc(-c3nc(Nc4ccc5c(n4)CCN(CCC(N)NO)C5)ncc3F)cc2n1C(C)C

>  <vina_score>  (1) 
-8.777

>  <job_id>  (1) 
caaee5a20b9cc769

$$$$
