
     RDKit          3D

 39 40  0  0  0  0  0  0  0  0999 V2000
   51.8100   75.3570   26.1450 C   0  0  0  0  0  0  0  0  0  0  0  0
   52.7780   76.2650   26.7080 N   0  0  0  0  0  0  0  0  0  0  0  0
   53.2850   76.0460   27.9730 C   0  0  0  0  0  0  0  0  0  0  0  0
   52.9060   75.1400   28.7070 O   0  0  0  0  0  0  0  0  0  0  0  0
   54.3760   76.9600   28.4140 C   0  0  0  0  0  0  0  0  0  0  0  0
   54.6060   78.1270   27.6790 C   0  0  0  0  0  0  0  0  0  0  0  0
   55.6220   79.0090   28.0580 C   0  0  0  0  0  0  0  0  0  0  0  0
   56.4350   78.7440   29.1720 C   0  0  0  0  0  0  0  0  0  0  0  0
   57.5080   79.6720   29.5690 C   0  0  0  0  0  0  0  0  0  0  0  0
   58.2230   80.4040   28.6040 C   0  0  0  0  0  0  0  0  0  0  0  0
   59.2410   81.2870   28.9760 C   0  0  0  0  0  0  0  0  0  0  0  0
   59.5710   81.4350   30.3260 C   0  0  0  0  0  0  0  0  0  0  0  0
   60.6230   82.3870   30.7520 C   0  0  0  0  0  0  0  0  0  0  0  0
   61.7920   82.0210   30.6500 O   0  0  0  0  0  0  0  0  0  0  0  0
   60.2490   83.6310   31.2580 N   0  0  0  0  0  0  0  0  0  0  0  0
   58.9600   84.2670   31.0200 C   0  0  0  0  0  0  0  0  0  0  0  0
   61.2870   84.4830   31.8140 C   0  0  0  0  0  0  0  0  0  0  0  0
   58.8560   80.7380   31.3020 C   0  0  0  0  0  0  0  0  0  0  0  0
   57.8390   79.8570   30.9220 C   0  0  0  0  0  0  0  0  0  0  0  0
   56.2010   77.5590   29.8920 C   0  0  0  0  0  0  0  0  0  0  0  0
   55.1850   76.6710   29.5170 C   0  0  0  0  0  0  0  0  0  0  0  0
   51.2684   74.8490   26.9566 H   0  0  0  0  0  0  0  0  0  0  0  0
   51.0970   75.9197   25.5244 H   0  0  0  0  0  0  0  0  0  0  0  0
   52.3260   74.6095   25.5244 H   0  0  0  0  0  0  0  0  0  0  0  0
   53.3090   76.8390   26.0690 H   0  0  0  0  0  0  0  0  0  0  0  0
   53.9851   78.3518   26.7993 H   0  0  0  0  0  0  0  0  0  0  0  0
   55.7875   79.9262   27.4738 H   0  0  0  0  0  0  0  0  0  0  0  0
   57.9771   80.2797   27.5391 H   0  0  0  0  0  0  0  0  0  0  0  0
   59.7800   81.8629   28.2093 H   0  0  0  0  0  0  0  0  0  0  0  0
   58.4837   84.5020   31.9833 H   0  0  0  0  0  0  0  0  0  0  0  0
   59.1090   85.1950   30.4485 H   0  0  0  0  0  0  0  0  0  0  0  0
   58.3142   83.5841   30.4485 H   0  0  0  0  0  0  0  0  0  0  0  0
   61.2422   84.4462   32.9125 H   0  0  0  0  0  0  0  0  0  0  0  0
   62.2720   84.1296   31.4752 H   0  0  0  0  0  0  0  0  0  0  0  0
   61.1324   85.5180   31.4752 H   0  0  0  0  0  0  0  0  0  0  0  0
   59.0921   80.8816   32.3667 H   0  0  0  0  0  0  0  0  0  0  0  0
   57.2891   79.2997   31.6947 H   0  0  0  0  0  0  0  0  0  0  0  0
   56.8273   77.3253   30.7656 H   0  0  0  0  0  0  0  0  0  0  0  0
   55.0235   75.7462   30.0903 H   0  0  0  0  0  0  0  0  0  0  0  0
  1  2  1  0
  2  3  1  0
  3  4  2  0
  3  5  1  0
  5  6  1  0
  6  7  2  0
  7  8  1  0
  8  9  1  0
  9 10  1  0
 10 11  2  0
 11 12  1  0
 12 13  1  0
 13 14  2  0
 13 15  1  0
 15 16  1  0
 15 17  1  0
 12 18  2  0
 18 19  1  0
  8 20  2  0
 20 21  1  0
 21  5  2  0
 19  9  2  0
  1 22  1  0
  1 23  1  0
  1 24  1  0
  2 25  1  0
  6 26  1  0
  7 27  1  0
 10 28  1  0
 11 29  1  0
 16 30  1  0
 16 31  1  0
 16 32  1  0
 17 33  1  0
 17 34  1  0
 17 35  1  0
 18 36  1  0
 19 37  1  0
 20 38  1  0
 21 39  1  0
M  END
>  <meeko>  (1) 
{"is_sidechain": false}

>  <smiles>  (1) 
CNC(=O)c1ccc(-c2ccc(C(=O)N(C)C)cc2)cc1

>  <vina_score>  (1) 
-7.163

>  <job_id>  (1) 
cab9a3bcf07d91a4

$$$$
