
     RDKit          3D

 36 37  0  0  0  0  0  0  0  0999 V2000
   52.3580   75.8780   27.6320 C   0  0  0  0  0  0  0  0  0  0  0  0
   52.6090   77.2220   28.0200 O   0  0  0  0  0  0  0  0  0  0  0  0
   53.9090   77.5720   28.2760 C   0  0  0  0  0  0  0  0  0  0  0  0
   54.7630   76.8920   29.1460 C   0  0  0  0  0  0  0  0  0  0  0  0
   56.0800   77.3320   29.3370 C   0  0  0  0  0  0  0  0  0  0  0  0
   56.5700   78.4590   28.6750 C   0  0  0  0  0  0  0  0  0  0  0  0
   57.8930   78.9130   28.8130 N   0  0  0  0  0  0  0  0  0  0  0  0
   58.4710   79.8870   29.6440 C   0  0  0  0  0  0  0  0  0  0  0  0
   59.3620   80.8610   29.1740 C   0  0  0  0  0  0  0  0  0  0  0  0
   59.9460   81.7890   30.0430 C   0  0  0  0  0  0  0  0  0  0  0  0
   59.6510   81.7320   31.4050 C   0  0  0  0  0  0  0  0  0  0  0  0
   60.3820   82.9000   32.5200 S   0  0  0  0  0  0  0  0  0  0  0  0
   59.6420   82.4820   33.9740 N   0  0  0  0  0  0  0  0  0  0  0  0
   59.9330   84.2220   32.1560 O   0  0  0  0  0  0  0  0  0  0  0  0
   61.7780   82.5670   32.6850 O   0  0  0  0  0  0  0  0  0  0  0  0
   58.7630   80.7760   31.8990 C   0  0  0  0  0  0  0  0  0  0  0  0
   58.1860   79.8570   31.0190 C   0  0  0  0  0  0  0  0  0  0  0  0
   55.7070   79.1330   27.8010 C   0  0  0  0  0  0  0  0  0  0  0  0
   54.3830   78.7050   27.5960 C   0  0  0  0  0  0  0  0  0  0  0  0
   53.4940   79.4590   26.6460 C   0  0  0  0  0  0  0  0  0  0  0  0
   52.2413   75.2529   28.5296 H   0  0  0  0  0  0  0  0  0  0  0  0
   51.4364   75.8353   27.0331 H   0  0  0  0  0  0  0  0  0  0  0  0
   53.2021   75.5055   27.0331 H   0  0  0  0  0  0  0  0  0  0  0  0
   54.3999   76.0047   29.6854 H   0  0  0  0  0  0  0  0  0  0  0  0
   56.7399   76.7788   30.0215 H   0  0  0  0  0  0  0  0  0  0  0  0
   58.5660   78.3860   28.2690 H   0  0  0  0  0  0  0  0  0  0  0  0
   59.6068   80.8966   28.1022 H   0  0  0  0  0  0  0  0  0  0  0  0
   60.6318   82.5568   29.6555 H   0  0  0  0  0  0  0  0  0  0  0  0
   59.7210   83.2030   34.6880 H   0  0  0  0  0  0  0  0  0  0  0  0
   58.6670   82.2350   33.7870 H   0  0  0  0  0  0  0  0  0  0  0  0
   58.5195   80.7461   32.9713 H   0  0  0  0  0  0  0  0  0  0  0  0
   57.4954   79.0955   31.4104 H   0  0  0  0  0  0  0  0  0  0  0  0
   56.0740   80.0188   27.2618 H   0  0  0  0  0  0  0  0  0  0  0  0
   52.7776   80.0666   27.2183 H   0  0  0  0  0  0  0  0  0  0  0  0
   54.1080   80.1159   26.0124 H   0  0  0  0  0  0  0  0  0  0  0  0
   52.9461   78.7460   26.0124 H   0  0  0  0  0  0  0  0  0  0  0  0
  1  2  1  0
  2  3  1  0
  3  4  1  0
  4  5  2  0
  5  6  1  0
  6  7  1  0
  7  8  1  0
  8  9  1  0
  9 10  2  0
 10 11  1  0
 11 12  1  0
 12 13  1  0
 12 14  2  0
 12 15  2  0
 11 16  2  0
 16 17  1  0
  6 18  2  0
 18 19  1  0
 19 20  1  0
 19  3  2  0
 17  8  2  0
  1 21  1  0
  1 22  1  0
  1 23  1  0
  4 24  1  0
  5 25  1  0
  7 26  1  0
  9 27  1  0
 10 28  1  0
 13 29  1  0
 13 30  1  0
 16 31  1  0
 17 32  1  0
 18 33  1  0
 20 34  1  0
 20 35  1  0
 20 36  1  0
M  END
>  <meeko>  (1) 
{"is_sidechain": false}

>  <smiles>  (1) 
COc1ccc(Nc2ccc(S(N)(=O)=O)cc2)cc1C

>  <vina_score>  (1) 
-7.794

>  <job_id>  (1) 
cb1e2680472f7bbe

$$$$
