
     RDKit          3D

 59 64  0  0  0  0  0  0  0  0999 V2000
   63.4710   83.9830   37.0700 C   0  0  0  0  0  0  0  0  0  0  0  0
   62.6270   83.2950   36.0600 C   0  0  0  0  0  0  0  0  0  0  0  0
   61.7680   82.3400   36.3590 N   0  0  0  0  0  0  0  0  0  0  0  0
   61.1900   81.9580   35.1770 C   0  0  0  0  0  0  0  0  0  0  0  0
   60.2200   80.9810   34.9090 C   0  0  0  0  0  0  0  0  0  0  0  0
   59.6980   80.2340   35.8950 F   0  0  0  0  0  0  0  0  0  0  0  0
   59.7850   80.7660   33.5970 C   0  0  0  0  0  0  0  0  0  0  0  0
   60.2940   81.5110   32.5210 C   0  0  0  0  0  0  0  0  0  0  0  0
   59.8430   81.2850   31.1280 C   0  0  0  0  0  0  0  0  0  0  0  0
   59.0330   80.2080   30.9510 N   0  0  0  0  0  0  0  0  0  0  0  0
   58.5780   79.9330   29.7140 C   0  0  0  0  0  0  0  0  0  0  0  0
   57.7560   78.8280   29.6200 N   0  0  0  0  0  0  0  0  0  0  0  0
   56.5410   78.5600   29.0190 C   0  0  0  0  0  0  0  0  0  0  0  0
   55.6410   77.6010   29.4610 C   0  0  0  0  0  0  0  0  0  0  0  0
   54.4390   77.4130   28.7790 C   0  0  0  0  0  0  0  0  0  0  0  0
   54.1460   78.1950   27.6640 C   0  0  0  0  0  0  0  0  0  0  0  0
   55.1000   79.1300   27.2720 C   0  0  0  0  0  0  0  0  0  0  0  0
   56.2720   79.3190   27.9320 N   0  0  0  0  0  0  0  0  0  0  0  0
   54.8310   80.0320   26.0970 C   0  0  0  0  0  0  0  0  0  0  0  0
   53.7390   79.4710   25.1860 C   0  0  0  0  0  0  0  0  0  0  0  0
   52.5600   79.0860   25.9660 N   0  0  0  0  0  0  0  0  0  0  0  0
   52.8870   77.9780   26.8710 C   0  0  0  0  0  0  0  0  0  0  0  0
   58.8950   80.6730   28.6410 N   0  0  0  0  0  0  0  0  0  0  0  0
   59.7060   81.7320   28.8380 C   0  0  0  0  0  0  0  0  0  0  0  0
   60.2090   82.0840   30.0620 C   0  0  0  0  0  0  0  0  0  0  0  0
   61.0270   83.1370   30.1800 F   0  0  0  0  0  0  0  0  0  0  0  0
   61.2770   82.4920   32.7930 C   0  0  0  0  0  0  0  0  0  0  0  0
   61.7010   82.6990   34.1180 C   0  0  0  0  0  0  0  0  0  0  0  0
   62.6180   83.5580   34.7030 N   0  0  0  0  0  0  0  0  0  0  0  0
   63.4320   84.5250   33.9560 C   0  0  0  0  0  0  0  0  0  0  0  0
   62.6250   85.7680   33.5780 C   0  0  0  0  0  0  0  0  0  0  0  0
   64.1330   83.9270   32.7580 C   0  0  0  0  0  0  0  0  0  0  0  0
   65.6410   83.9710   32.6560 C   0  0  0  0  0  0  0  0  0  0  0  0
   64.9450   82.6610   32.8950 C   0  0  0  0  0  0  0  0  0  0  0  0
   63.1327   83.7072   38.0797 H   0  0  0  0  0  0  0  0  0  0  0  0
   64.5202   83.6795   36.9392 H   0  0  0  0  0  0  0  0  0  0  0  0
   63.3852   85.0718   36.9392 H   0  0  0  0  0  0  0  0  0  0  0  0
   59.0254   79.9943   33.4034 H   0  0  0  0  0  0  0  0  0  0  0  0
   58.1240   78.0280   30.1100 H   0  0  0  0  0  0  0  0  0  0  0  0
   55.8746   76.9911   30.3461 H   0  0  0  0  0  0  0  0  0  0  0  0
   53.7245   76.6495   29.1205 H   0  0  0  0  0  0  0  0  0  0  0  0
   54.5119   81.0164   26.4701 H   0  0  0  0  0  0  0  0  0  0  0  0
   55.7575   80.1119   25.5094 H   0  0  0  0  0  0  0  0  0  0  0  0
   53.4515   80.2385   24.4523 H   0  0  0  0  0  0  0  0  0  0  0  0
   54.1299   78.5797   24.6733 H   0  0  0  0  0  0  0  0  0  0  0  0
   51.8150   78.7870   25.3370 H   0  0  0  0  0  0  0  0  0  0  0  0
   52.0519   77.8467   27.5748 H   0  0  0  0  0  0  0  0  0  0  0  0
   53.0519   77.0894   26.2439 H   0  0  0  0  0  0  0  0  0  0  0  0
   59.9785   82.3470   27.9676 H   0  0  0  0  0  0  0  0  0  0  0  0
   61.7063   83.0882   31.9743 H   0  0  0  0  0  0  0  0  0  0  0  0
   64.2320   84.8376   34.6432 H   0  0  0  0  0  0  0  0  0  0  0  0
   62.2920   86.2810   34.4923 H   0  0  0  0  0  0  0  0  0  0  0  0
   63.2546   86.4476   32.9849 H   0  0  0  0  0  0  0  0  0  0  0  0
   61.7480   85.4694   32.9849 H   0  0  0  0  0  0  0  0  0  0  0  0
   63.2965   84.2499   32.1208 H   0  0  0  0  0  0  0  0  0  0  0  0
   66.1207   84.1696   31.6863 H   0  0  0  0  0  0  0  0  0  0  0  0
   66.4383   84.5317   33.1658 H   0  0  0  0  0  0  0  0  0  0  0  0
   64.9162   81.9012   32.1001 H   0  0  0  0  0  0  0  0  0  0  0  0
   65.0234   81.8671   33.6523 H   0  0  0  0  0  0  0  0  0  0  0  0
  1  2  1  0
  2  3  2  0
  3  4  1  0
  4  5  2  0
  5  6  1  0
  5  7  1  0
  7  8  2  0
  8  9  1  0
  9 10  2  0
 10 11  1  0
 11 12  1  0
 12 13  1  0
 13 14  1  0
 14 15  2  0
 15 16  1  0
 16 17  2  0
 17 18  1  0
 17 19  1  0
 19 20  1  0
 20 21  1  0
 21 22  1  0
 11 23  2  0
 23 24  1  0
 24 25  2  0
 25 26  1  0
  8 27  1  0
 27 28  2  0
 28 29  1  0
 29 30  1  0
 30 31  1  0
 30 32  1  0
 32 33  1  0
 33 34  1  0
 29  2  1  0
 34 32  1  0
 28  4  1  0
 25  9  1  0
 18 13  2  0
 22 16  1  0
  1 35  1  0
  1 36  1  0
  1 37  1  0
  7 38  1  0
 12 39  1  0
 14 40  1  0
 15 41  1  0
 19 42  1  0
 19 43  1  0
 20 44  1  0
 20 45  1  0
 21 46  1  0
 22 47  1  0
 22 48  1  0
 24 49  1  0
 27 50  1  0
 30 51  1  0
 31 52  1  0
 31 53  1  0
 31 54  1  0
 32 55  1  0
 33 56  1  0
 33 57  1  0
 34 58  1  0
 34 59  1  0
M  END
>  <meeko>  (1) 
{"is_sidechain": false}

>  <smiles>  (1) 
Cc1nc2c(F)cc(-c3nc(Nc4ccc5c(n4)CCNC5)ncc3F)cc2n1C(C)C1CC1

>  <vina_score>  (1) 
-8.930

>  <job_id>  (1) 
cb3ba068b25159c3

$$$$
