
     RDKit          3D

 29 30  0  0  0  0  0  0  0  0999 V2000
   59.6640   80.5450   29.2300 O   0  0  0  0  0  0  0  0  0  0  0  0
   58.9290   79.9710   30.0180 C   0  0  0  0  0  0  0  0  0  0  0  0
   57.7990   79.2480   29.7270 N   0  0  0  0  0  0  0  0  0  0  0  0
   57.1620   79.2220   28.5050 C   0  0  0  0  0  0  0  0  0  0  0  0
   57.4850   79.8560   27.5100 O   0  0  0  0  0  0  0  0  0  0  0  0
   55.9400   78.3710   28.4460 C   0  0  0  0  0  0  0  0  0  0  0  0
   55.9310   77.1710   29.1730 C   0  0  0  0  0  0  0  0  0  0  0  0
   54.8080   76.3420   29.1460 C   0  0  0  0  0  0  0  0  0  0  0  0
   53.6960   76.7200   28.4020 C   0  0  0  0  0  0  0  0  0  0  0  0
   52.6170   75.9270   28.3760 F   0  0  0  0  0  0  0  0  0  0  0  0
   53.6830   77.9160   27.6900 C   0  0  0  0  0  0  0  0  0  0  0  0
   54.8050   78.7490   27.7140 C   0  0  0  0  0  0  0  0  0  0  0  0
   59.1320   79.9060   31.3950 O   0  0  0  0  0  0  0  0  0  0  0  0
   59.3040   81.1340   32.0450 C   0  0  0  0  0  0  0  0  0  0  0  0
   58.3680   82.1580   31.9010 C   0  0  0  0  0  0  0  0  0  0  0  0
   58.6030   83.3880   32.5210 C   0  0  0  0  0  0  0  0  0  0  0  0
   59.7710   83.5800   33.2600 C   0  0  0  0  0  0  0  0  0  0  0  0
   60.0600   85.0980   34.0180 Cl  0  0  0  0  0  0  0  0  0  0  0  0
   60.7130   82.5560   33.3840 C   0  0  0  0  0  0  0  0  0  0  0  0
   60.4830   81.3250   32.7660 C   0  0  0  0  0  0  0  0  0  0  0  0
   57.3500   78.8440   30.5310 H   0  0  0  0  0  0  0  0  0  0  0  0
   56.8114   76.8825   29.7660 H   0  0  0  0  0  0  0  0  0  0  0  0
   54.8030   75.3970   29.7090 H   0  0  0  0  0  0  0  0  0  0  0  0
   52.7934   78.2043   27.1109 H   0  0  0  0  0  0  0  0  0  0  0  0
   54.7979   79.6992   27.1599 H   0  0  0  0  0  0  0  0  0  0  0  0
   57.4561   81.9993   31.3067 H   0  0  0  0  0  0  0  0  0  0  0  0
   57.8696   84.2024   32.4268 H   0  0  0  0  0  0  0  0  0  0  0  0
   61.6321   82.7186   33.9660 H   0  0  0  0  0  0  0  0  0  0  0  0
   61.2230   80.5152   32.8468 H   0  0  0  0  0  0  0  0  0  0  0  0
  1  2  2  0
  2  3  1  0
  3  4  1  0
  4  5  2  0
  4  6  1  0
  6  7  1  0
  7  8  2  0
  8  9  1  0
  9 10  1  0
  9 11  2  0
 11 12  1  0
  2 13  1  0
 13 14  1  0
 14 15  1  0
 15 16  2  0
 16 17  1  0
 17 18  1  0
 17 19  2  0
 19 20  1  0
 12  6  2  0
 20 14  2  0
  3 21  1  0
  7 22  1  0
  8 23  1  0
 11 24  1  0
 12 25  1  0
 15 26  1  0
 16 27  1  0
 19 28  1  0
 20 29  1  0
M  END
>  <meeko>  (1) 
{"is_sidechain": false}

>  <smiles>  (1) 
O=C(NC(=O)c1ccc(F)cc1)Oc1ccc(Cl)cc1

>  <vina_score>  (1) 
-7.655

>  <job_id>  (1) 
cb5790084688d244

$$$$
