
     RDKit          3D

 52 54  0  0  0  0  0  0  0  0999 V2000
   65.7310   81.8200   31.0330 C   0  0  0  0  0  0  0  0  0  0  0  0
   64.9890   82.9330   30.5580 O   0  0  0  0  0  0  0  0  0  0  0  0
   64.1660   83.5330   31.5690 C   0  0  0  0  0  0  0  0  0  0  0  0
   62.7660   83.0000   31.6170 C   0  0  0  0  0  0  0  0  0  0  0  0
   61.8730   82.8230   30.5360 C   0  0  0  0  0  0  0  0  0  0  0  0
   60.7240   82.2760   31.0790 C   0  0  0  0  0  0  0  0  0  0  0  0
   59.5210   81.8810   30.3790 C   0  0  0  0  0  0  0  0  0  0  0  0
   58.6410   82.6920   30.1130 O   0  0  0  0  0  0  0  0  0  0  0  0
   59.5030   80.5560   30.0160 N   0  0  0  0  0  0  0  0  0  0  0  0
   58.4740   79.9150   29.3750 C   0  0  0  0  0  0  0  0  0  0  0  0
   57.4370   79.1130   29.8960 C   0  0  0  0  0  0  0  0  0  0  0  0
   56.6910   78.7220   28.8030 C   0  0  0  0  0  0  0  0  0  0  0  0
   55.4650   77.8600   28.6960 C   0  0  0  0  0  0  0  0  0  0  0  0
   55.3630   76.9090   29.8940 C   0  0  0  0  0  0  0  0  0  0  0  0
   54.2070   78.7380   28.5150 C   0  0  0  0  0  0  0  0  0  0  0  0
   53.7540   78.8480   27.0950 C   0  0  0  0  0  3  0  0  0  0  0  0
   54.4500   79.6240   26.1900 O   0  0  0  0  0  0  0  0  0  0  0  0
   53.6860   80.3390   25.3000 C   0  0  0  0  0  0  0  0  0  0  0  0
   53.3080   79.7200   24.1080 C   0  0  0  0  0  0  0  0  0  0  0  0
   53.6380   78.4410   23.8770 F   0  0  0  0  0  0  0  0  0  0  0  0
   52.5640   80.4030   23.1470 C   0  0  0  0  0  0  0  0  0  0  0  0
   52.2040   81.7300   23.3700 C   0  0  0  0  0  0  0  0  0  0  0  0
   52.5970   82.3680   24.5490 C   0  0  0  0  0  0  0  0  0  0  0  0
   53.3450   81.6780   25.5110 C   0  0  0  0  0  0  0  0  0  0  0  0
   53.8410   82.5380   26.9230 Cl  0  0  0  0  0  0  0  0  0  0  0  0
   57.3060   79.2990   27.7260 N   0  0  0  0  0  0  0  0  0  0  0  0
   58.3960   80.0140   28.0470 N   0  0  0  0  0  0  0  0  0  0  0  0
   60.9530   82.2550   32.4320 N   0  0  0  0  0  0  0  0  0  0  0  0
   60.0180   81.9430   33.4890 C   0  0  0  0  0  0  0  0  0  0  0  0
   62.1960   82.6400   32.7740 N   0  0  0  0  0  0  0  0  0  0  0  0
   65.7302   81.8213   32.1330 H   0  0  0  0  0  0  0  0  0  0  0  0
   65.2716   80.8899   30.6670 H   0  0  0  0  0  0  0  0  0  0  0  0
   66.7662   81.8863   30.6670 H   0  0  0  0  0  0  0  0  0  0  0  0
   64.6366   83.3554   32.5473 H   0  0  0  0  0  0  0  0  0  0  0  0
   64.0892   84.6019   31.3211 H   0  0  0  0  0  0  0  0  0  0  0  0
   62.0543   83.0696   29.4794 H   0  0  0  0  0  0  0  0  0  0  0  0
   60.3210   79.9770   30.1240 H   0  0  0  0  0  0  0  0  0  0  0  0
   57.2604   78.8541   30.9504 H   0  0  0  0  0  0  0  0  0  0  0  0
   55.5440   77.2252   27.8011 H   0  0  0  0  0  0  0  0  0  0  0  0
   55.4250   77.4874   30.8276 H   0  0  0  0  0  0  0  0  0  0  0  0
   54.4024   76.3744   29.8570 H   0  0  0  0  0  0  0  0  0  0  0  0
   56.1884   76.1828   29.8570 H   0  0  0  0  0  0  0  0  0  0  0  0
   53.3898   78.3014   29.1080 H   0  0  0  0  0  0  0  0  0  0  0  0
   54.4705   79.7523   28.8493 H   0  0  0  0  0  0  0  0  0  0  0  0
   53.7431   77.8258   26.6889 H   0  0  0  0  0  0  0  0  0  0  0  0
   52.2630   79.8969   22.2179 H   0  0  0  0  0  0  0  0  0  0  0  0
   51.6117   82.2742   22.6196 H   0  0  0  0  0  0  0  0  0  0  0  0
   52.3175   83.4176   24.7226 H   0  0  0  0  0  0  0  0  0  0  0  0
   57.0370   79.2440   26.7480 H   0  0  0  0  0  0  0  0  0  0  0  0
   60.5003   82.1039   34.4645 H   0  0  0  0  0  0  0  0  0  0  0  0
   59.1368   82.5958   33.4035 H   0  0  0  0  0  0  0  0  0  0  0  0
   59.7053   80.8918   33.4035 H   0  0  0  0  0  0  0  0  0  0  0  0
  1  2  1  0
  2  3  1  0
  3  4  1  0
  4  5  1  0
  5  6  2  0
  6  7  1  0
  7  8  2  0
  7  9  1  0
  9 10  1  0
 10 11  1  0
 11 12  2  0
 12 13  1  0
 13 14  1  0
 13 15  1  0
 15 16  1  0
 16 17  1  0
 17 18  1  0
 18 19  2  0
 19 20  1  0
 19 21  1  0
 21 22  2  0
 22 23  1  0
 23 24  2  0
 24 25  1  0
 12 26  1  0
 26 27  1  0
  6 28  1  0
 28 29  1  0
 28 30  1  0
 30  4  2  0
 27 10  2  0
 24 18  1  0
  1 31  1  0
  1 32  1  0
  1 33  1  0
  3 34  1  0
  3 35  1  0
  5 36  1  0
  9 37  1  0
 11 38  1  0
 13 39  1  0
 14 40  1  0
 14 41  1  0
 14 42  1  0
 15 43  1  0
 15 44  1  0
 16 45  1  0
 21 46  1  0
 22 47  1  0
 23 48  1  0
 26 49  1  0
 29 50  1  0
 29 51  1  0
 29 52  1  0
M  RAD  1  16   2
M  END
>  <meeko>  (1) 
{"is_sidechain": false}

>  <smiles>  (1) 
COCc1cc(C(=O)Nc2cc(C(C)C[CH]Oc3c(F)cccc3Cl)[nH]n2)n(C)n1

>  <vina_score>  (1) 
-8.113

>  <job_id>  (1) 
cb66357e2d6a29a7

$$$$
