
     RDKit          3D

 44 45  0  0  0  0  0  0  0  0999 V2000
   59.1010   83.5760   31.0190 C   0  0  0  0  0  0  0  0  0  0  0  0
   60.2890   82.8570   30.3980 C   0  0  0  0  0  0  0  0  0  0  0  0
   60.3450   81.3760   30.7700 C   0  0  0  0  0  0  0  0  0  0  0  0
   59.6850   80.5220   29.8000 N   0  0  0  0  0  0  0  0  0  0  0  0
   58.4100   80.0350   30.0300 C   0  0  0  0  0  0  0  0  0  0  0  0
   57.8110   80.2500   31.0750 O   0  0  0  0  0  0  0  0  0  0  0  0
   57.9700   79.3010   28.9660 N   0  0  0  0  0  0  0  0  0  0  0  0
   56.7310   78.6950   28.8450 C   0  0  0  0  0  0  0  0  0  0  0  0
   56.2930   77.7910   29.7310 N   0  0  0  0  0  0  0  0  0  0  0  0
   55.0730   77.2590   29.5190 C   0  0  0  0  0  0  0  0  0  0  0  0
   54.2740   77.6140   28.4650 C   0  0  0  0  0  0  0  0  0  0  0  0
   53.0660   77.0670   28.2920 F   0  0  0  0  0  0  0  0  0  0  0  0
   54.7960   78.5670   27.6180 C   0  0  0  0  0  0  0  0  0  0  0  0
   54.0910   79.0540   26.4420 C   0  0  0  0  0  0  0  0  0  0  0  0
   53.5130   78.3190   25.4280 C   0  0  0  0  0  0  0  0  0  0  0  0
   52.9350   79.1270   24.4960 N   0  0  0  0  0  0  0  0  0  0  0  0
   53.1640   80.3640   24.8920 C   0  0  0  0  0  0  0  0  0  0  0  0
   52.7130   81.5560   24.1290 C   0  0  0  0  0  0  0  0  0  0  0  0
   53.8910   80.3770   26.0720 N   0  0  0  0  0  0  0  0  0  0  0  0
   54.4140   81.5420   26.7880 C   0  0  0  0  0  0  0  0  0  0  0  0
   53.3100   82.4820   27.2700 C   0  0  0  0  0  0  0  0  0  0  0  0
   55.5090   82.2910   26.0260 C   0  0  0  0  0  0  0  0  0  0  0  0
   56.0210   79.1150   27.7860 N   0  0  0  0  0  0  0  0  0  0  0  0
   59.1769   83.5301   32.1154 H   0  0  0  0  0  0  0  0  0  0  0  0
   59.0986   84.6273   30.6953 H   0  0  0  0  0  0  0  0  0  0  0  0
   58.1685   83.0905   30.6953 H   0  0  0  0  0  0  0  0  0  0  0  0
   60.2185   82.9421   29.3036 H   0  0  0  0  0  0  0  0  0  0  0  0
   61.2028   83.3308   30.7860 H   0  0  0  0  0  0  0  0  0  0  0  0
   61.3998   81.0728   30.8435 H   0  0  0  0  0  0  0  0  0  0  0  0
   59.8157   81.2570   31.7269 H   0  0  0  0  0  0  0  0  0  0  0  0
   59.9690   80.6190   28.8370 H   0  0  0  0  0  0  0  0  0  0  0  0
   58.6170   79.0340   28.2460 H   0  0  0  0  0  0  0  0  0  0  0  0
   54.7012   76.5033   30.2266 H   0  0  0  0  0  0  0  0  0  0  0  0
   53.5181   77.2201   25.3783 H   0  0  0  0  0  0  0  0  0  0  0  0
   52.4132   82.3485   24.8305 H   0  0  0  0  0  0  0  0  0  0  0  0
   53.5360   81.9189   23.4957 H   0  0  0  0  0  0  0  0  0  0  0  0
   51.8559   81.2833   23.4957 H   0  0  0  0  0  0  0  0  0  0  0  0
   54.8999   81.1295   27.6845 H   0  0  0  0  0  0  0  0  0  0  0  0
   53.2942   82.4955   28.3698 H   0  0  0  0  0  0  0  0  0  0  0  0
   53.5028   83.4975   26.8936 H   0  0  0  0  0  0  0  0  0  0  0  0
   52.3383   82.1298   26.8936 H   0  0  0  0  0  0  0  0  0  0  0  0
   56.1978   82.7621   26.7427 H   0  0  0  0  0  0  0  0  0  0  0  0
   56.0653   81.5834   25.3937 H   0  0  0  0  0  0  0  0  0  0  0  0
   55.0512   83.0660   25.3937 H   0  0  0  0  0  0  0  0  0  0  0  0
  1  2  1  0
  2  3  1  0
  3  4  1  0
  4  5  1  0
  5  6  2  0
  5  7  1  0
  7  8  1  0
  8  9  2  0
  9 10  1  0
 10 11  2  0
 11 12  1  0
 11 13  1  0
 13 14  1  0
 14 15  2  0
 15 16  1  0
 16 17  2  0
 17 18  1  0
 17 19  1  0
 19 20  1  0
 20 21  1  0
 20 22  1  0
 13 23  2  0
 23  8  1  0
 19 14  1  0
  1 24  1  0
  1 25  1  0
  1 26  1  0
  2 27  1  0
  2 28  1  0
  3 29  1  0
  3 30  1  0
  4 31  1  0
  7 32  1  0
 10 33  1  0
 15 34  1  0
 18 35  1  0
 18 36  1  0
 18 37  1  0
 20 38  1  0
 21 39  1  0
 21 40  1  0
 21 41  1  0
 22 42  1  0
 22 43  1  0
 22 44  1  0
M  END
>  <meeko>  (1) 
{"is_sidechain": false}

>  <smiles>  (1) 
CCCNC(=O)Nc1ncc(F)c(-c2cnc(C)n2C(C)C)n1

>  <vina_score>  (1) 
-7.503

>  <job_id>  (1) 
cb748768c204fc69

$$$$
