
     RDKit          3D

 45 47  0  0  0  0  0  0  0  0999 V2000
   61.1440   81.5360   33.0280 O   0  0  0  0  0  0  0  0  0  0  0  0
   60.8170   82.0770   31.9760 C   0  0  0  0  0  0  0  0  0  0  0  0
   61.2900   83.3090   31.6050 N   0  0  0  0  0  0  0  0  0  0  0  0
   62.1460   84.0670   32.4910 C   0  0  0  0  0  0  0  0  0  0  0  0
   63.5730   84.0520   32.0250 C   0  0  0  0  0  0  0  0  0  0  0  0
   64.6210   84.4590   32.8560 C   0  0  0  0  0  0  0  0  0  0  0  0
   65.9310   84.4140   32.3870 C   0  0  0  0  0  0  0  0  0  0  0  0
   66.1520   83.9580   31.0980 C   0  0  0  0  0  0  0  0  0  0  0  0
   65.1680   83.5490   30.2700 N   0  0  0  0  0  0  0  0  0  0  0  0
   63.9040   83.6000   30.7510 C   0  0  0  0  0  0  0  0  0  0  0  0
   59.9540   81.4950   31.0710 N   0  0  0  0  0  0  0  0  0  0  0  0
   59.7320   81.9570   29.6980 C   0  0  0  0  0  0  0  0  0  0  0  0
   59.2740   80.8180   28.7700 C   0  0  0  0  0  0  0  0  0  0  0  0
   58.0280   80.1710   29.2210 N   0  0  0  0  0  0  0  0  0  0  0  0
   57.8210   78.8990   28.5130 C   0  0  0  0  0  0  0  0  0  0  0  0
   56.3710   78.4640   28.4650 C   0  0  0  0  0  0  0  0  0  0  0  0
   55.9340   77.3570   29.2070 C   0  0  0  0  0  0  0  0  0  0  0  0
   54.6020   76.9410   29.1450 C   0  0  0  0  0  0  0  0  0  0  0  0
   53.6940   77.6230   28.3370 C   0  0  0  0  0  0  0  0  0  0  0  0
   54.1170   78.7190   27.5870 C   0  0  0  0  0  0  0  0  0  0  0  0
   55.4480   79.1350   27.6480 C   0  0  0  0  0  0  0  0  0  0  0  0
   57.9750   80.0250   30.6940 C   0  0  0  0  0  0  0  0  0  0  0  0
   59.3110   80.2320   31.4310 C   0  0  0  0  0  0  0  0  0  0  0  0
   60.6630   83.8510   31.0330 H   0  0  0  0  0  0  0  0  0  0  0  0
   61.7923   85.1080   32.5253 H   0  0  0  0  0  0  0  0  0  0  0  0
   62.1043   83.6056   33.4887 H   0  0  0  0  0  0  0  0  0  0  0  0
   64.4114   84.8133   33.8761 H   0  0  0  0  0  0  0  0  0  0  0  0
   66.7693   84.7325   33.0240 H   0  0  0  0  0  0  0  0  0  0  0  0
   67.1876   83.9275   30.7285 H   0  0  0  0  0  0  0  0  0  0  0  0
   63.0880   83.2635   30.0946 H   0  0  0  0  0  0  0  0  0  0  0  0
   58.9585   82.7391   29.7078 H   0  0  0  0  0  0  0  0  0  0  0  0
   60.6868   82.3442   29.3127 H   0  0  0  0  0  0  0  0  0  0  0  0
   59.1099   81.2307   27.7636 H   0  0  0  0  0  0  0  0  0  0  0  0
   60.0630   80.0516   28.7768 H   0  0  0  0  0  0  0  0  0  0  0  0
   58.1852   79.0114   27.4812 H   0  0  0  0  0  0  0  0  0  0  0  0
   58.3728   78.1260   29.0680 H   0  0  0  0  0  0  0  0  0  0  0  0
   56.6464   76.8116   29.8434 H   0  0  0  0  0  0  0  0  0  0  0  0
   54.2693   76.0740   29.7346 H   0  0  0  0  0  0  0  0  0  0  0  0
   52.6445   77.2966   28.2912 H   0  0  0  0  0  0  0  0  0  0  0  0
   53.4018   79.2563   26.9469 H   0  0  0  0  0  0  0  0  0  0  0  0
   55.7768   79.9975   27.0497 H   0  0  0  0  0  0  0  0  0  0  0  0
   57.2567   80.7624   31.0817 H   0  0  0  0  0  0  0  0  0  0  0  0
   57.6855   78.9807   30.8829 H   0  0  0  0  0  0  0  0  0  0  0  0
   59.1215   80.2279   32.5145 H   0  0  0  0  0  0  0  0  0  0  0  0
   59.9868   79.4150   31.1380 H   0  0  0  0  0  0  0  0  0  0  0  0
  1  2  2  0
  2  3  1  0
  3  4  1  0
  4  5  1  0
  5  6  1  0
  6  7  2  0
  7  8  1  0
  8  9  2  0
  9 10  1  0
  2 11  1  0
 11 12  1  0
 12 13  1  0
 13 14  1  0
 14 15  1  0
 15 16  1  0
 16 17  2  0
 17 18  1  0
 18 19  2  0
 19 20  1  0
 20 21  2  0
 14 22  1  0
 22 23  1  0
 10  5  2  0
 23 11  1  0
 21 16  1  0
  3 24  1  0
  4 25  1  0
  4 26  1  0
  6 27  1  0
  7 28  1  0
  8 29  1  0
 10 30  1  0
 12 31  1  0
 12 32  1  0
 13 33  1  0
 13 34  1  0
 15 35  1  0
 15 36  1  0
 17 37  1  0
 18 38  1  0
 19 39  1  0
 20 40  1  0
 21 41  1  0
 22 42  1  0
 22 43  1  0
 23 44  1  0
 23 45  1  0
M  END
>  <meeko>  (1) 
{"is_sidechain": false}

>  <smiles>  (1) 
O=C(NCc1cccnc1)N1CCN(Cc2ccccc2)CC1

>  <vina_score>  (1) 
-7.096

>  <job_id>  (1) 
cbb0ecef2cf55ae2

$$$$
