
     RDKit          3D

 33 34  0  0  0  0  0  0  0  0999 V2000
   62.9390   81.7320   33.3860 C   0  0  0  0  0  0  0  0  0  0  0  0
   62.0290   82.6090   32.7330 O   0  0  0  0  0  0  0  0  0  0  0  0
   61.0320   82.0280   32.0010 C   0  0  0  0  0  0  0  0  0  0  0  0
   60.1760   81.2020   32.7300 C   0  0  0  0  0  0  0  0  0  0  0  0
   59.1120   80.5460   32.1030 C   0  0  0  0  0  0  0  0  0  0  0  0
   58.8860   80.7080   30.7320 C   0  0  0  0  0  0  0  0  0  0  0  0
   57.7970   80.0100   30.1700 N   0  0  0  0  0  0  0  0  0  0  0  0
   57.7210   79.4520   28.9070 C   0  0  0  0  0  0  0  0  0  0  0  0
   58.5600   79.5220   28.0170 O   0  0  0  0  0  0  0  0  0  0  0  0
   56.4500   78.7290   28.6170 C   0  0  0  0  0  0  0  0  0  0  0  0
   56.1310   77.6030   29.3850 C   0  0  0  0  0  0  0  0  0  0  0  0
   54.9480   76.9010   29.1470 C   0  0  0  0  0  0  0  0  0  0  0  0
   54.0560   77.3240   28.1490 C   0  0  0  0  0  0  0  0  0  0  0  0
   52.7850   76.5540   27.8760 C   0  0  0  0  0  0  0  0  0  0  0  0
   51.6780   77.1570   28.3950 F   0  0  0  0  0  0  0  0  0  0  0  0
   52.5450   76.4140   26.5440 F   0  0  0  0  0  0  0  0  0  0  0  0
   52.7990   75.2940   28.3920 F   0  0  0  0  0  0  0  0  0  0  0  0
   54.3780   78.4610   27.3890 C   0  0  0  0  0  0  0  0  0  0  0  0
   55.5640   79.1650   27.6250 C   0  0  0  0  0  0  0  0  0  0  0  0
   59.7460   81.5320   30.0050 C   0  0  0  0  0  0  0  0  0  0  0  0
   60.8130   82.1890   30.6340 C   0  0  0  0  0  0  0  0  0  0  0  0
   62.8308   81.8363   34.4757 H   0  0  0  0  0  0  0  0  0  0  0  0
   62.7217   80.6941   33.0936 H   0  0  0  0  0  0  0  0  0  0  0  0
   63.9682   81.9875   33.0936 H   0  0  0  0  0  0  0  0  0  0  0  0
   60.3397   81.0654   33.8091 H   0  0  0  0  0  0  0  0  0  0  0  0
   58.4474   79.8974   32.6926 H   0  0  0  0  0  0  0  0  0  0  0  0
   56.9620   79.9770   30.7390 H   0  0  0  0  0  0  0  0  0  0  0  0
   56.8152   77.2699   30.1793 H   0  0  0  0  0  0  0  0  0  0  0  0
   54.7129   76.0091   29.7464 H   0  0  0  0  0  0  0  0  0  0  0  0
   53.6907   78.8012   26.6004 H   0  0  0  0  0  0  0  0  0  0  0  0
   55.7999   80.0605   27.0313 H   0  0  0  0  0  0  0  0  0  0  0  0
   59.5849   81.6677   28.9254 H   0  0  0  0  0  0  0  0  0  0  0  0
   61.4809   82.8351   30.0454 H   0  0  0  0  0  0  0  0  0  0  0  0
  1  2  1  0
  2  3  1  0
  3  4  1  0
  4  5  2  0
  5  6  1  0
  6  7  1  0
  7  8  1  0
  8  9  2  0
  8 10  1  0
 10 11  1  0
 11 12  2  0
 12 13  1  0
 13 14  1  0
 14 15  1  0
 14 16  1  0
 14 17  1  0
 13 18  2  0
 18 19  1  0
  6 20  2  0
 20 21  1  0
 21  3  2  0
 19 10  2  0
  1 22  1  0
  1 23  1  0
  1 24  1  0
  4 25  1  0
  5 26  1  0
  7 27  1  0
 11 28  1  0
 12 29  1  0
 18 30  1  0
 19 31  1  0
 20 32  1  0
 21 33  1  0
M  END
>  <meeko>  (1) 
{"is_sidechain": false}

>  <smiles>  (1) 
COc1ccc(NC(=O)c2ccc(C(F)(F)F)cc2)cc1

>  <vina_score>  (1) 
-7.962

>  <job_id>  (1) 
cc5853cb853b67a8

$$$$
