
     RDKit          3D

 56 59  0  0  0  0  0  0  0  0999 V2000
   63.0620   79.6760   36.4030 C   0  0  0  0  0  0  0  0  0  0  0  0
   62.2990   80.8460   36.9390 C   0  0  0  0  0  0  0  0  0  0  0  0
   61.7350   81.8410   36.2340 C   0  0  0  0  0  0  0  0  0  0  0  0
   61.7830   81.9680   34.7700 C   0  0  0  0  0  0  0  0  0  0  0  0
   62.8850   82.6330   34.2180 C   0  0  0  0  0  0  0  0  0  0  0  0
   63.0140   82.8130   32.8400 C   0  0  0  0  0  0  0  0  0  0  0  0
   61.9990   82.3090   32.0210 C   0  0  0  0  0  0  0  0  0  0  0  0
   61.8850   82.3540   30.6490 N   0  0  0  0  0  0  0  0  0  0  0  0
   60.7410   81.7320   30.2510 C   0  0  0  0  0  0  0  0  0  0  0  0
   60.4350   81.6220   28.9640 O   0  0  0  0  0  0  0  0  0  0  0  0
   60.0850   81.2910   31.3750 C   0  0  0  0  0  0  0  0  0  0  0  0
   58.9030   80.6210   31.3710 N   0  0  0  0  0  0  0  0  0  0  0  0
   58.6990   79.5180   30.5800 N   0  0  0  0  0  0  0  0  0  0  0  0
   57.8100   79.5490   29.4810 C   0  0  0  0  0  0  0  0  0  0  0  0
   56.6730   78.7320   29.4880 C   0  0  0  0  0  0  0  0  0  0  0  0
   55.7440   78.7910   28.4440 C   0  0  0  0  0  0  0  0  0  0  0  0
   55.9240   79.6790   27.3770 C   0  0  0  0  0  0  0  0  0  0  0  0
   54.9920   79.7830   26.3280 N   0  0  0  0  0  0  0  0  0  0  0  0
   54.8200   80.9800   26.0060 N   0  0  0  0  0  0  0  0  0  0  0  0
   53.8750   81.0810   24.9700 C   0  0  0  0  0  0  0  0  0  0  0  0
   53.3560   82.3400   24.6400 C   0  0  0  0  0  0  0  0  0  0  0  0
   52.4370   82.4830   23.5980 C   0  0  0  0  0  0  0  0  0  0  0  0
   52.0460   81.3560   22.8670 C   0  0  0  0  0  0  0  0  0  0  0  0
   50.8590   81.5260   21.5660 S   0  0  0  0  0  0  0  0  0  0  0  0
   49.4430   81.0380   22.3230 N   0  0  0  0  0  0  0  0  0  0  0  0
   51.1270   80.5380   20.5480 O   0  0  0  0  0  0  0  0  0  0  0  0
   50.6850   82.9270   21.2600 O   0  0  0  0  0  0  0  0  0  0  0  0
   52.5530   80.0930   23.1820 C   0  0  0  0  0  0  0  0  0  0  0  0
   53.4720   79.9630   24.2260 C   0  0  0  0  0  0  0  0  0  0  0  0
   57.0310   80.5290   27.3940 C   0  0  0  0  0  0  0  0  0  0  0  0
   57.9600   80.4710   28.4380 C   0  0  0  0  0  0  0  0  0  0  0  0
   60.8740   81.6350   32.5220 C   0  0  0  0  0  0  0  0  0  0  0  0
   60.7680   81.4570   33.9280 C   0  0  0  0  0  0  0  0  0  0  0  0
   59.3280   80.6070   34.5550 S   0  0  0  0  0  0  0  0  0  0  0  0
   63.4520   79.0780   37.2399 H   0  0  0  0  0  0  0  0  0  0  0  0
   62.3952   79.0543   35.7875 H   0  0  0  0  0  0  0  0  0  0  0  0
   63.8998   80.0355   35.7875 H   0  0  0  0  0  0  0  0  0  0  0  0
   62.1873   80.8973   38.0321 H   0  0  0  0  0  0  0  0  0  0  0  0
   61.1966   82.6195   36.7945 H   0  0  0  0  0  0  0  0  0  0  0  0
   63.6672   83.0226   34.8861 H   0  0  0  0  0  0  0  0  0  0  0  0
   63.8840   83.3333   32.4131 H   0  0  0  0  0  0  0  0  0  0  0  0
   62.5540   82.7680   30.0160 H   0  0  0  0  0  0  0  0  0  0  0  0
   60.0950   80.7020   28.8960 H   0  0  0  0  0  0  0  0  0  0  0  0
   58.0620   81.1490   31.6270 H   0  0  0  0  0  0  0  0  0  0  0  0
   59.5550   79.0000   30.3670 H   0  0  0  0  0  0  0  0  0  0  0  0
   56.5085   78.0360   30.3238 H   0  0  0  0  0  0  0  0  0  0  0  0
   54.8628   78.1328   28.4616 H   0  0  0  0  0  0  0  0  0  0  0  0
   53.6760   83.2259   25.2081 H   0  0  0  0  0  0  0  0  0  0  0  0
   52.0243   83.4731   23.3542 H   0  0  0  0  0  0  0  0  0  0  0  0
   48.8870   81.8550   22.5750 H   0  0  0  0  0  0  0  0  0  0  0  0
   48.9480   80.3690   21.7330 H   0  0  0  0  0  0  0  0  0  0  0  0
   52.2313   79.2084   22.6128 H   0  0  0  0  0  0  0  0  0  0  0  0
   53.8842   78.9721   24.4672 H   0  0  0  0  0  0  0  0  0  0  0  0
   57.1743   81.2522   26.5776 H   0  0  0  0  0  0  0  0  0  0  0  0
   58.8190   81.1581   28.4397 H   0  0  0  0  0  0  0  0  0  0  0  0
   58.4200   81.3530   33.9060 H   0  0  0  0  0  0  0  0  0  0  0  0
  1  2  1  0
  2  3  2  3
  3  4  1  0
  4  5  2  0
  5  6  1  0
  6  7  2  0
  7  8  1  0
  8  9  1  0
  9 10  1  0
  9 11  2  0
 11 12  1  0
 12 13  1  0
 13 14  1  0
 14 15  1  0
 15 16  2  0
 16 17  1  0
 17 18  1  0
 18 19  2  3
 19 20  1  0
 20 21  1  0
 21 22  2  0
 22 23  1  0
 23 24  1  0
 24 25  1  0
 24 26  2  0
 24 27  2  0
 23 28  2  0
 28 29  1  0
 17 30  2  0
 30 31  1  0
 11 32  1  0
 32 33  2  0
 33 34  1  0
 33  4  1  0
 32  7  1  0
 31 14  2  0
 29 20  2  0
  1 35  1  0
  1 36  1  0
  1 37  1  0
  2 38  1  0
  3 39  1  0
  5 40  1  0
  6 41  1  0
  8 42  1  0
 10 43  1  0
 12 44  1  0
 13 45  1  0
 15 46  1  0
 16 47  1  0
 21 48  1  0
 22 49  1  0
 25 50  1  0
 25 51  1  0
 28 52  1  0
 29 53  1  0
 30 54  1  0
 31 55  1  0
 34 56  1  0
M  END
>  <meeko>  (1) 
{"is_sidechain": false}

>  <smiles>  (1) 
CC=Cc1ccc2[nH]c(O)c(NNc3ccc(N=Nc4ccc(S(N)(=O)=O)cc4)cc3)c2c1S

>  <vina_score>  (1) 
-8.745

>  <job_id>  (1) 
cc6d7d4c458b6ea0

$$$$
