
     RDKit          3D

 62 67  0  0  0  0  0  0  0  0999 V2000
   56.5410   81.4540   26.9320 C   0  0  0  0  0  0  0  0  0  0  0  0
   55.3250   80.8610   26.4290 N   0  0  0  0  0  0  0  0  0  0  0  0
   54.6870   81.4470   25.3890 N   0  0  0  0  0  0  0  0  0  0  0  0
   53.6090   80.6590   25.1630 C   0  0  0  0  0  0  0  0  0  0  0  0
   52.6340   80.9710   24.1090 C   0  0  0  0  0  0  0  0  0  0  0  0
   53.1970   81.2640   22.8980 N   0  0  0  0  0  0  0  0  0  0  0  0
   51.4190   80.9790   24.2740 O   0  0  0  0  0  0  0  0  0  0  0  0
   53.5930   79.5690   26.0660 C   0  0  0  0  0  0  0  0  0  0  0  0
   54.7050   79.7290   26.8690 C   0  0  0  0  0  0  0  0  0  0  0  0
   55.0570   78.8130   27.9370 C   0  0  0  0  0  0  0  0  0  0  0  0
   56.0240   79.1800   28.7920 N   0  0  0  0  0  0  0  0  0  0  0  0
   56.3060   78.3150   29.7790 C   0  0  0  0  0  0  0  0  0  0  0  0
   57.3090   78.7330   30.6500 N   0  0  0  0  0  0  0  0  0  0  0  0
   58.2550   79.7630   30.6260 C   0  0  0  0  0  0  0  0  0  0  0  0
   58.9870   80.1270   29.4950 C   0  0  0  0  0  0  0  0  0  0  0  0
   59.9190   81.1740   29.5360 C   0  0  0  0  0  0  0  0  0  0  0  0
   60.1500   81.8980   30.7130 C   0  0  0  0  0  0  0  0  0  0  0  0
   61.1290   82.9950   30.7540 C   0  0  0  0  0  0  0  0  0  0  0  0
   62.4920   82.7590   30.5350 C   0  0  0  0  0  0  0  0  0  0  0  0
   63.4250   83.8060   30.5730 C   0  0  0  0  0  0  0  0  0  0  0  0
   63.0270   85.1180   30.8380 C   0  0  0  0  0  0  0  0  0  0  0  0
   63.9190   86.2030   30.8490 N   0  0  0  0  0  0  0  0  0  0  0  0
   64.8090   86.7000   29.8810 C   0  0  0  0  0  0  0  0  0  0  0  0
   65.8500   87.5480   30.2880 C   0  0  0  0  0  0  0  0  0  0  0  0
   66.7830   88.0390   29.3700 C   0  0  0  0  0  0  0  0  0  0  0  0
   66.6910   87.6850   28.0270 C   0  0  0  0  0  0  0  0  0  0  0  0
   65.6670   86.8400   27.6050 C   0  0  0  0  0  0  0  0  0  0  0  0
   64.7380   86.3490   28.5270 C   0  0  0  0  0  0  0  0  0  0  0  0
   61.6640   85.3570   31.0530 C   0  0  0  0  0  0  0  0  0  0  0  0
   60.7300   84.3140   31.0140 C   0  0  0  0  0  0  0  0  0  0  0  0
   59.4130   81.5370   31.8480 C   0  0  0  0  0  0  0  0  0  0  0  0
   58.4840   80.4900   31.8040 C   0  0  0  0  0  0  0  0  0  0  0  0
   55.6810   77.1350   29.9290 N   0  0  0  0  0  0  0  0  0  0  0  0
   54.7200   76.8090   29.0450 C   0  0  0  0  0  0  0  0  0  0  0  0
   54.3430   77.6270   28.0130 C   0  0  0  0  0  0  0  0  0  0  0  0
   53.3160   77.2450   26.9740 C   0  0  0  0  0  0  0  0  0  0  0  0
   52.6350   78.4450   26.2680 C   0  0  0  0  0  0  0  0  0  0  0  0
   56.5251   81.4462   28.0319 H   0  0  0  0  0  0  0  0  0  0  0  0
   57.4060   80.8766   26.5737 H   0  0  0  0  0  0  0  0  0  0  0  0
   56.6187   82.4911   26.5737 H   0  0  0  0  0  0  0  0  0  0  0  0
   54.2080   81.2730   22.8280 H   0  0  0  0  0  0  0  0  0  0  0  0
   52.6120   81.5250   22.1210 H   0  0  0  0  0  0  0  0  0  0  0  0
   57.3390   78.1070   31.4410 H   0  0  0  0  0  0  0  0  0  0  0  0
   58.8298   79.5818   28.5526 H   0  0  0  0  0  0  0  0  0  0  0  0
   60.4800   81.4320   28.6257 H   0  0  0  0  0  0  0  0  0  0  0  0
   62.8370   81.7349   30.3296 H   0  0  0  0  0  0  0  0  0  0  0  0
   64.4881   83.5898   30.3910 H   0  0  0  0  0  0  0  0  0  0  0  0
   63.9210   86.7270   31.7160 H   0  0  0  0  0  0  0  0  0  0  0  0
   65.9335   87.8314   31.3476 H   0  0  0  0  0  0  0  0  0  0  0  0
   67.5900   88.7052   29.7091 H   0  0  0  0  0  0  0  0  0  0  0  0
   67.4233   88.0706   27.3024 H   0  0  0  0  0  0  0  0  0  0  0  0
   65.5893   86.5586   26.5444 H   0  0  0  0  0  0  0  0  0  0  0  0
   63.9384   85.6762   28.1836 H   0  0  0  0  0  0  0  0  0  0  0  0
   61.3208   86.3822   31.2561 H   0  0  0  0  0  0  0  0  0  0  0  0
   59.6665   84.5330   31.1901 H   0  0  0  0  0  0  0  0  0  0  0  0
   59.5664   82.0849   32.7894 H   0  0  0  0  0  0  0  0  0  0  0  0
   57.9213   80.2318   32.7132 H   0  0  0  0  0  0  0  0  0  0  0  0
   54.2130   75.8392   29.1566 H   0  0  0  0  0  0  0  0  0  0  0  0
   53.8146   76.6338   26.2073 H   0  0  0  0  0  0  0  0  0  0  0  0
   52.5200   76.7041   27.5067 H   0  0  0  0  0  0  0  0  0  0  0  0
   52.2560   78.1168   25.2889 H   0  0  0  0  0  0  0  0  0  0  0  0
   51.8114   78.8007   26.9046 H   0  0  0  0  0  0  0  0  0  0  0  0
  1  2  1  0
  2  3  1  0
  3  4  2  0
  4  5  1  0
  5  6  1  0
  5  7  2  0
  4  8  1  0
  8  9  2  0
  9 10  1  0
 10 11  2  0
 11 12  1  0
 12 13  1  0
 13 14  1  0
 14 15  1  0
 15 16  2  0
 16 17  1  0
 17 18  1  0
 18 19  1  0
 19 20  2  0
 20 21  1  0
 21 22  1  0
 22 23  1  0
 23 24  2  0
 24 25  1  0
 25 26  2  0
 26 27  1  0
 27 28  2  0
 21 29  2  0
 29 30  1  0
 17 31  2  0
 31 32  1  0
 12 33  2  0
 33 34  1  0
 34 35  2  0
 35 36  1  0
 36 37  1  0
  9  2  1  0
 35 10  1  0
 37  8  1  0
 32 14  2  0
 30 18  2  0
 28 23  1  0
  1 38  1  0
  1 39  1  0
  1 40  1  0
  6 41  1  0
  6 42  1  0
 13 43  1  0
 15 44  1  0
 16 45  1  0
 19 46  1  0
 20 47  1  0
 22 48  1  0
 24 49  1  0
 25 50  1  0
 26 51  1  0
 27 52  1  0
 28 53  1  0
 29 54  1  0
 30 55  1  0
 31 56  1  0
 32 57  1  0
 34 58  1  0
 36 59  1  0
 36 60  1  0
 37 61  1  0
 37 62  1  0
M  END
>  <meeko>  (1) 
{"is_sidechain": false}

>  <smiles>  (1) 
Cn1nc(C(N)=O)c2c1-c1nc(Nc3ccc(-c4ccc(Nc5ccccc5)cc4)cc3)ncc1CC2

>  <vina_score>  (1) 
-9.016

>  <job_id>  (1) 
cc86f12a56ea3efa

$$$$
