
     RDKit          3D

 40 41  0  0  0  0  0  0  0  0999 V2000
   63.7810   83.9360   33.9640 C   0  0  0  0  0  0  0  0  0  0  0  0
   64.5430   83.3090   32.8100 C   0  0  0  0  0  0  0  0  0  0  0  0
   63.6490   82.4770   31.9020 C   0  0  0  0  0  0  0  0  0  0  0  0
   64.1040   81.7390   31.0370 O   0  0  0  0  0  0  0  0  0  0  0  0
   62.3090   82.6790   32.1970 N   0  0  0  0  0  0  0  0  0  0  0  0
   61.1920   82.0890   31.5710 C   0  0  0  0  0  0  0  0  0  0  0  0
   60.8100   82.3340   30.2540 C   0  0  0  0  0  0  0  0  0  0  0  0
   59.6820   81.7050   29.7050 C   0  0  0  0  0  0  0  0  0  0  0  0
   58.9170   80.8210   30.4650 C   0  0  0  0  0  0  0  0  0  0  0  0
   57.7760   80.1450   29.9860 N   0  0  0  0  0  0  0  0  0  0  0  0
   57.6840   79.3560   28.8540 C   0  0  0  0  0  0  0  0  0  0  0  0
   58.5600   79.1560   28.0200 O   0  0  0  0  0  0  0  0  0  0  0  0
   56.3480   78.7320   28.6340 C   0  0  0  0  0  0  0  0  0  0  0  0
   55.9740   77.6520   29.4430 C   0  0  0  0  0  0  0  0  0  0  0  0
   54.7280   77.0360   29.2690 C   0  0  0  0  0  0  0  0  0  0  0  0
   53.8460   77.5010   28.2940 C   0  0  0  0  0  0  0  0  0  0  0  0
   52.6070   76.9940   28.0200 O   0  0  0  0  0  0  0  0  0  0  0  0
   52.5580   75.6870   27.4600 C   0  0  0  0  0  0  0  0  0  0  0  0
   54.2160   78.5930   27.5010 C   0  0  0  0  0  0  0  0  0  0  0  0
   55.4580   79.2130   27.6690 C   0  0  0  0  0  0  0  0  0  0  0  0
   59.3020   80.5720   31.7870 C   0  0  0  0  0  0  0  0  0  0  0  0
   60.4270   81.2000   32.3350 C   0  0  0  0  0  0  0  0  0  0  0  0
   64.2056   83.5866   34.9167 H   0  0  0  0  0  0  0  0  0  0  0  0
   63.8633   85.0314   33.9057 H   0  0  0  0  0  0  0  0  0  0  0  0
   62.7220   83.6443   33.9057 H   0  0  0  0  0  0  0  0  0  0  0  0
   65.0019   84.1113   32.2136 H   0  0  0  0  0  0  0  0  0  0  0  0
   65.3015   82.6368   33.2376 H   0  0  0  0  0  0  0  0  0  0  0  0
   62.1050   83.3260   32.9480 H   0  0  0  0  0  0  0  0  0  0  0  0
   61.3993   83.0285   29.6372 H   0  0  0  0  0  0  0  0  0  0  0  0
   59.3979   81.9118   28.6626 H   0  0  0  0  0  0  0  0  0  0  0  0
   56.9200   80.3170   30.4950 H   0  0  0  0  0  0  0  0  0  0  0  0
   56.6621   77.2855   30.2190 H   0  0  0  0  0  0  0  0  0  0  0  0
   54.4445   76.1831   29.9032 H   0  0  0  0  0  0  0  0  0  0  0  0
   52.5301   74.9423   28.2691 H   0  0  0  0  0  0  0  0  0  0  0  0
   51.6555   75.5878   26.8390 H   0  0  0  0  0  0  0  0  0  0  0  0
   53.4505   75.5205   26.8390 H   0  0  0  0  0  0  0  0  0  0  0  0
   53.5208   78.9685   26.7356 H   0  0  0  0  0  0  0  0  0  0  0  0
   55.7337   80.0756   27.0445 H   0  0  0  0  0  0  0  0  0  0  0  0
   58.7143   79.8751   32.4026 H   0  0  0  0  0  0  0  0  0  0  0  0
   60.7127   80.9926   33.3768 H   0  0  0  0  0  0  0  0  0  0  0  0
  1  2  1  0
  2  3  1  0
  3  4  2  0
  3  5  1  0
  5  6  1  0
  6  7  1  0
  7  8  2  0
  8  9  1  0
  9 10  1  0
 10 11  1  0
 11 12  2  0
 11 13  1  0
 13 14  1  0
 14 15  2  0
 15 16  1  0
 16 17  1  0
 17 18  1  0
 16 19  2  0
 19 20  1  0
  9 21  2  0
 21 22  1  0
 22  6  2  0
 20 13  2  0
  1 23  1  0
  1 24  1  0
  1 25  1  0
  2 26  1  0
  2 27  1  0
  5 28  1  0
  7 29  1  0
  8 30  1  0
 10 31  1  0
 14 32  1  0
 15 33  1  0
 18 34  1  0
 18 35  1  0
 18 36  1  0
 19 37  1  0
 20 38  1  0
 21 39  1  0
 22 40  1  0
M  END
>  <meeko>  (1) 
{"is_sidechain": false}

>  <smiles>  (1) 
CCC(=O)Nc1ccc(NC(=O)c2ccc(OC)cc2)cc1

>  <vina_score>  (1) 
-7.169

>  <job_id>  (1) 
cc87f2836764411c

$$$$
