
     RDKit          3D

 60 62  0  0  0  0  0  0  0  0999 V2000
   52.8350   75.9710   27.5650 C   0  0  0  0  0  0  0  0  0  0  0  0
   53.2590   77.2280   27.7730 C   0  0  0  0  0  0  0  0  0  0  0  0
   53.7150   77.5630   29.1140 C   0  0  0  0  0  0  0  0  0  0  0  0
   54.9850   77.5890   29.5500 C   0  0  0  0  0  0  0  0  0  0  0  0
   56.2250   77.2650   28.7700 C   0  0  0  0  0  0  0  0  0  0  0  0
   56.8100   78.5050   28.2830 N   0  0  0  0  0  0  0  0  0  0  0  0
   57.6430   79.3100   29.0530 C   0  0  0  0  0  0  0  0  0  0  0  0
   57.5790   79.3950   30.4460 C   0  0  0  0  0  0  0  0  0  0  0  0
   58.4060   80.2750   31.1640 C   0  0  0  0  0  0  0  0  0  0  0  0
   59.3160   81.1250   30.5150 C   0  0  0  0  0  0  0  0  0  0  0  0
   60.1980   82.0540   31.2520 C   0  0  0  0  0  0  0  0  0  0  0  0
   61.4060   82.5010   30.7490 C   0  0  0  0  0  0  0  0  0  0  0  0
   62.1320   83.3640   31.5440 C   0  0  0  0  0  0  0  0  0  0  0  0
   63.4500   83.8990   31.0750 C   0  0  0  0  0  0  0  0  0  0  0  0
   61.6970   83.7650   32.7530 N   0  0  0  0  0  0  0  0  0  0  0  0
   60.5090   83.3050   33.1510 C   0  0  0  0  0  0  0  0  0  0  0  0
   60.0600   83.6970   34.3950 N   0  0  0  0  0  0  0  0  0  0  0  0
   59.7470   82.4580   32.4600 N   0  0  0  0  0  0  0  0  0  0  0  0
   59.3380   81.0710   29.1130 C   0  0  0  0  0  0  0  0  0  0  0  0
   58.5120   80.1920   28.4000 C   0  0  0  0  0  0  0  0  0  0  0  0
   53.3280   78.2240   26.7950 N   0  0  0  0  0  0  0  0  0  0  0  0
   53.3100   77.8950   25.3480 C   0  0  0  0  0  0  0  0  0  0  0  0
   53.8080   79.0550   24.4700 C   0  0  0  0  0  0  0  0  0  0  0  0
   53.0200   80.2640   24.7110 N   0  0  0  0  0  0  0  0  0  0  0  0
   52.1960   80.8590   23.7650 C   0  0  0  0  0  0  0  0  0  0  0  0
   52.8470   81.3770   22.5060 C   0  0  0  0  0  0  0  0  0  0  0  0
   50.9810   80.9820   23.9220 O   0  0  0  0  0  0  0  0  0  0  0  0
   52.8340   80.6190   26.1340 C   0  0  0  0  0  0  0  0  0  0  0  0
   53.3100   82.0490   26.4130 C   0  0  0  0  0  0  0  0  0  0  0  0
   53.5630   79.6530   27.1110 C   0  0  0  0  0  0  0  0  0  0  0  0
   52.4804   75.6679   26.5688 H   0  0  0  0  0  0  0  0  0  0  0  0
   52.8423   75.2444   28.3908 H   0  0  0  0  0  0  0  0  0  0  0  0
   52.9375   77.8222   29.8477 H   0  0  0  0  0  0  0  0  0  0  0  0
   55.1331   77.8815   30.6000 H   0  0  0  0  0  0  0  0  0  0  0  0
   56.9455   76.7464   29.4196 H   0  0  0  0  0  0  0  0  0  0  0  0
   55.9728   76.6122   27.9214 H   0  0  0  0  0  0  0  0  0  0  0  0
   57.1220   78.4200   27.3200 H   0  0  0  0  0  0  0  0  0  0  0  0
   56.8662   78.7596   30.9921 H   0  0  0  0  0  0  0  0  0  0  0  0
   58.3390   80.2987   32.2617 H   0  0  0  0  0  0  0  0  0  0  0  0
   61.7711   82.1834   29.7612 H   0  0  0  0  0  0  0  0  0  0  0  0
   64.0736   84.1521   31.9451 H   0  0  0  0  0  0  0  0  0  0  0  0
   63.9600   83.1367   30.4677 H   0  0  0  0  0  0  0  0  0  0  0  0
   63.2844   84.8011   30.4677 H   0  0  0  0  0  0  0  0  0  0  0  0
   59.6800   82.8960   34.8800 H   0  0  0  0  0  0  0  0  0  0  0  0
   59.4640   84.5060   34.2960 H   0  0  0  0  0  0  0  0  0  0  0  0
   60.0198   81.7344   28.5607 H   0  0  0  0  0  0  0  0  0  0  0  0
   58.5473   80.1951   27.3006 H   0  0  0  0  0  0  0  0  0  0  0  0
   53.9567   77.0217   25.1775 H   0  0  0  0  0  0  0  0  0  0  0  0
   52.2666   77.6893   25.0667 H   0  0  0  0  0  0  0  0  0  0  0  0
   54.8628   79.2590   24.7061 H   0  0  0  0  0  0  0  0  0  0  0  0
   53.7007   78.7688   23.4133 H   0  0  0  0  0  0  0  0  0  0  0  0
   53.6822   82.0416   22.7718 H   0  0  0  0  0  0  0  0  0  0  0  0
   53.2259   80.5307   21.9142 H   0  0  0  0  0  0  0  0  0  0  0  0
   52.1074   81.9363   21.9142 H   0  0  0  0  0  0  0  0  0  0  0  0
   51.7526   80.5333   26.3161 H   0  0  0  0  0  0  0  0  0  0  0  0
   53.3642   82.2120   27.4995 H   0  0  0  0  0  0  0  0  0  0  0  0
   54.3059   82.1970   25.9699 H   0  0  0  0  0  0  0  0  0  0  0  0
   52.6015   82.7643   25.9699 H   0  0  0  0  0  0  0  0  0  0  0  0
   54.6438   79.8506   27.0581 H   0  0  0  0  0  0  0  0  0  0  0  0
   53.1608   79.8379   28.1180 H   0  0  0  0  0  0  0  0  0  0  0  0
  1  2  2  0
  2  3  1  0
  3  4  2  3
  4  5  1  0
  5  6  1  0
  6  7  1  0
  7  8  1  0
  8  9  2  0
  9 10  1  0
 10 11  1  0
 11 12  2  0
 12 13  1  0
 13 14  1  0
 13 15  2  0
 15 16  1  0
 16 17  1  0
 16 18  2  0
 10 19  2  0
 19 20  1  0
  2 21  1  0
 21 22  1  0
 22 23  1  0
 23 24  1  0
 24 25  1  0
 25 26  1  0
 25 27  2  0
 24 28  1  0
 28 29  1  0
 28 30  1  0
 20  7  2  0
 30 21  1  0
 18 11  1  0
  1 31  1  0
  1 32  1  0
  3 33  1  0
  4 34  1  0
  5 35  1  0
  5 36  1  0
  6 37  1  0
  8 38  1  0
  9 39  1  0
 12 40  1  0
 14 41  1  0
 14 42  1  0
 14 43  1  0
 17 44  1  0
 17 45  1  0
 19 46  1  0
 20 47  1  0
 22 48  1  0
 22 49  1  0
 23 50  1  0
 23 51  1  0
 26 52  1  0
 26 53  1  0
 26 54  1  0
 28 55  1  0
 29 56  1  0
 29 57  1  0
 29 58  1  0
 30 59  1  0
 30 60  1  0
M  END
>  <meeko>  (1) 
{"is_sidechain": false}

>  <smiles>  (1) 
C=C(C=CCNc1ccc(-c2cc(C)nc(N)n2)cc1)N1CCN(C(C)=O)C(C)C1

>  <vina_score>  (1) 
-8.671

>  <job_id>  (1) 
ccfeb9e77808d346

$$$$
