
     RDKit          3D

 38 40  0  0  0  0  0  0  0  0999 V2000
   50.1990   81.3610   22.0150 N   0  0  0  0  0  0  0  0  0  0  0  0
   51.8140   81.7850   22.1920 S   0  0  0  0  0  0  0  0  0  0  0  0
   51.8150   83.1640   22.6210 O   0  0  0  0  0  0  0  0  0  0  0  0
   52.4700   81.3500   20.9800 O   0  0  0  0  0  0  0  0  0  0  0  0
   52.3180   80.7530   23.5360 C   0  0  0  0  0  0  0  0  0  0  0  0
   52.1370   81.1930   24.8490 C   0  0  0  0  0  0  0  0  0  0  0  0
   52.5600   80.3890   25.9100 C   0  0  0  0  0  0  0  0  0  0  0  0
   53.1720   79.1500   25.6650 C   0  0  0  0  0  0  0  0  0  0  0  0
   53.6300   78.2810   26.8160 C   0  0  0  0  0  0  0  0  0  0  0  0
   54.8620   78.7960   27.5240 C   0  0  0  0  0  0  0  0  0  0  0  0
   55.2520   78.2580   28.7600 C   0  0  0  0  0  0  0  0  0  0  0  0
   56.3910   78.7330   29.4150 C   0  0  0  0  0  0  0  0  0  0  0  0
   57.1450   79.7490   28.8340 C   0  0  0  0  0  0  0  0  0  0  0  0
   58.4100   80.2860   29.5500 C   0  0  0  0  0  0  0  0  0  0  0  0
   59.4900   80.9850   29.1460 C   0  0  0  0  0  0  0  0  0  0  0  0
   60.1180   81.0080   30.5180 C   0  0  0  0  0  0  0  0  0  0  0  0
   58.8880   80.2110   30.9870 C   0  0  0  0  0  0  0  0  0  0  0  0
   56.7760   80.2950   27.6070 C   0  0  0  0  0  0  0  0  0  0  0  0
   55.6360   79.8190   26.9550 C   0  0  0  0  0  0  0  0  0  0  0  0
   53.3550   78.7280   24.3380 C   0  0  0  0  0  0  0  0  0  0  0  0
   52.9350   79.5280   23.2740 C   0  0  0  0  0  0  0  0  0  0  0  0
   49.7190   82.0620   21.4490 H   0  0  0  0  0  0  0  0  0  0  0  0
   49.7780   81.2140   22.9330 H   0  0  0  0  0  0  0  0  0  0  0  0
   51.6644   82.1665   25.0464 H   0  0  0  0  0  0  0  0  0  0  0  0
   52.4123   80.7295   26.9455 H   0  0  0  0  0  0  0  0  0  0  0  0
   52.8116   78.2176   27.5483 H   0  0  0  0  0  0  0  0  0  0  0  0
   53.8944   77.3021   26.3896 H   0  0  0  0  0  0  0  0  0  0  0  0
   54.6555   77.4549   29.2174 H   0  0  0  0  0  0  0  0  0  0  0  0
   56.6902   78.3068   30.3839 H   0  0  0  0  0  0  0  0  0  0  0  0
   59.8002   81.3906   28.1717 H   0  0  0  0  0  0  0  0  0  0  0  0
   61.0752   80.4720   30.5982 H   0  0  0  0  0  0  0  0  0  0  0  0
   60.4341   81.9424   31.0047 H   0  0  0  0  0  0  0  0  0  0  0  0
   59.1053   79.1957   31.3502 H   0  0  0  0  0  0  0  0  0  0  0  0
   58.2636   80.5368   31.8320 H   0  0  0  0  0  0  0  0  0  0  0  0
   57.3786   81.0961   27.1541 H   0  0  0  0  0  0  0  0  0  0  0  0
   55.3422   80.2501   25.9865 H   0  0  0  0  0  0  0  0  0  0  0  0
   53.8335   77.7585   24.1353 H   0  0  0  0  0  0  0  0  0  0  0  0
   53.0889   79.1959   22.2367 H   0  0  0  0  0  0  0  0  0  0  0  0
  1  2  1  0
  2  3  2  0
  2  4  2  0
  2  5  1  0
  5  6  1  0
  6  7  2  0
  7  8  1  0
  8  9  1  0
  9 10  1  0
 10 11  1  0
 11 12  2  0
 12 13  1  0
 13 14  1  0
 14 15  2  0
 15 16  1  0
 16 17  1  0
 13 18  2  0
 18 19  1  0
  8 20  2  0
 20 21  1  0
 21  5  2  0
 19 10  2  0
 17 14  1  0
  1 22  1  0
  1 23  1  0
  6 24  1  0
  7 25  1  0
  9 26  1  0
  9 27  1  0
 11 28  1  0
 12 29  1  0
 15 30  1  0
 16 31  1  0
 16 32  1  0
 17 33  1  0
 17 34  1  0
 18 35  1  0
 19 36  1  0
 20 37  1  0
 21 38  1  0
M  END
>  <meeko>  (1) 
{"is_sidechain": false}

>  <smiles>  (1) 
NS(=O)(=O)c1ccc(Cc2ccc(C3=CCC3)cc2)cc1

>  <vina_score>  (1) 
-7.951

>  <job_id>  (1) 
ce11a21afde1a1fa

$$$$
