
     RDKit          3D

 53 55  0  0  0  0  0  0  0  0999 V2000
   55.7490   76.6640   29.7810 O   0  0  0  0  0  0  0  0  0  0  0  0
   55.3060   77.5300   29.0330 C   0  0  0  0  0  0  0  0  0  0  0  0
   53.8070   77.6870   28.7400 C   0  0  0  0  0  0  0  0  0  0  0  0
   53.5200   77.3800   27.3230 N   0  0  0  0  0  0  0  0  0  0  0  0
   53.3470   78.4410   26.4250 C   0  0  0  0  0  0  0  0  0  0  0  0
   52.8560   79.6980   26.7890 C   0  0  0  0  0  0  0  0  0  0  0  0
   52.6310   80.6960   25.8310 C   0  0  0  0  0  0  0  0  0  0  0  0
   52.8690   80.4510   24.4730 C   0  0  0  0  0  0  0  0  0  0  0  0
   52.6030   81.5160   23.4380 C   0  0  0  0  0  0  0  0  0  0  0  0
   52.9310   82.7680   23.8620 F   0  0  0  0  0  0  0  0  0  0  0  0
   53.3100   81.3120   22.2920 F   0  0  0  0  0  0  0  0  0  0  0  0
   51.2950   81.5820   23.0640 F   0  0  0  0  0  0  0  0  0  0  0  0
   53.3100   79.1790   24.0940 C   0  0  0  0  0  0  0  0  0  0  0  0
   53.5340   78.1890   25.0580 C   0  0  0  0  0  0  0  0  0  0  0  0
   56.1030   78.4240   28.3450 N   0  0  0  0  0  0  0  0  0  0  0  0
   57.5500   78.3740   28.3920 C   0  0  0  0  0  0  0  0  0  0  0  0
   58.1850   79.7370   28.1010 C   0  0  0  0  0  0  0  0  0  0  0  0
   58.7540   80.3640   29.3470 C   0  0  0  0  0  0  0  0  0  0  0  0
   58.3870   79.9060   30.6120 C   0  0  0  0  0  0  0  0  0  0  0  0
   58.9380   80.4840   31.7640 C   0  0  0  0  0  0  0  0  0  0  0  0
   59.8720   81.5300   31.7030 C   0  0  0  0  0  0  0  0  0  0  0  0
   60.4130   82.0910   32.8460 N   0  0  0  0  0  0  0  0  0  0  0  0
   61.3930   81.3740   33.6780 C   0  0  0  0  0  0  0  0  0  0  0  0
   61.2760   81.8270   35.1430 C   0  0  0  0  0  0  0  0  0  0  0  0
   61.4850   83.2320   35.3420 O   0  0  0  0  0  0  0  0  0  0  0  0
   61.0970   84.0260   34.2110 C   0  0  0  0  0  0  0  0  0  0  0  0
   59.9810   83.4020   33.3550 C   0  0  0  0  0  0  0  0  0  0  0  0
   60.2300   81.9660   30.4190 C   0  0  0  0  0  0  0  0  0  0  0  0
   59.6850   81.3980   29.2590 C   0  0  0  0  0  0  0  0  0  0  0  0
   53.2389   76.9975   29.3817 H   0  0  0  0  0  0  0  0  0  0  0  0
   53.5122   78.7268   28.9448 H   0  0  0  0  0  0  0  0  0  0  0  0
   54.2040   76.7160   26.9580 H   0  0  0  0  0  0  0  0  0  0  0  0
   52.6421   79.9080   27.8474 H   0  0  0  0  0  0  0  0  0  0  0  0
   52.2634   81.6826   26.1494 H   0  0  0  0  0  0  0  0  0  0  0  0
   53.4820   78.9549   23.0309 H   0  0  0  0  0  0  0  0  0  0  0  0
   53.8643   77.1904   24.7360 H   0  0  0  0  0  0  0  0  0  0  0  0
   55.6350   78.9830   27.6350 H   0  0  0  0  0  0  0  0  0  0  0  0
   57.8608   78.0450   29.3946 H   0  0  0  0  0  0  0  0  0  0  0  0
   57.8893   77.6707   27.6172 H   0  0  0  0  0  0  0  0  0  0  0  0
   58.9939   79.6041   27.3675 H   0  0  0  0  0  0  0  0  0  0  0  0
   57.4025   80.4031   27.7086 H   0  0  0  0  0  0  0  0  0  0  0  0
   57.6603   79.0857   30.7064 H   0  0  0  0  0  0  0  0  0  0  0  0
   58.6280   80.1051   32.7490 H   0  0  0  0  0  0  0  0  0  0  0  0
   61.2013   80.2927   33.6153 H   0  0  0  0  0  0  0  0  0  0  0  0
   62.4063   81.5967   33.3126 H   0  0  0  0  0  0  0  0  0  0  0  0
   60.2679   81.5737   35.5030 H   0  0  0  0  0  0  0  0  0  0  0  0
   62.0700   81.3072   35.6992 H   0  0  0  0  0  0  0  0  0  0  0  0
   60.7453   85.0013   34.5786 H   0  0  0  0  0  0  0  0  0  0  0  0
   61.9828   84.1085   33.5640 H   0  0  0  0  0  0  0  0  0  0  0  0
   59.0778   83.2748   33.9699 H   0  0  0  0  0  0  0  0  0  0  0  0
   59.7625   84.0658   32.5055 H   0  0  0  0  0  0  0  0  0  0  0  0
   60.9625   82.7805   30.3188 H   0  0  0  0  0  0  0  0  0  0  0  0
   59.9944   81.7711   28.2715 H   0  0  0  0  0  0  0  0  0  0  0  0
  1  2  2  0
  2  3  1  0
  3  4  1  0
  4  5  1  0
  5  6  1  0
  6  7  2  0
  7  8  1  0
  8  9  1  0
  9 10  1  0
  9 11  1  0
  9 12  1  0
  8 13  2  0
 13 14  1  0
  2 15  1  0
 15 16  1  0
 16 17  1  0
 17 18  1  0
 18 19  1  0
 19 20  2  0
 20 21  1  0
 21 22  1  0
 22 23  1  0
 23 24  1  0
 24 25  1  0
 25 26  1  0
 26 27  1  0
 21 28  2  0
 28 29  1  0
 14  5  2  0
 29 18  2  0
 27 22  1  0
  3 30  1  0
  3 31  1  0
  4 32  1  0
  6 33  1  0
  7 34  1  0
 13 35  1  0
 14 36  1  0
 15 37  1  0
 16 38  1  0
 16 39  1  0
 17 40  1  0
 17 41  1  0
 19 42  1  0
 20 43  1  0
 23 44  1  0
 23 45  1  0
 24 46  1  0
 24 47  1  0
 26 48  1  0
 26 49  1  0
 27 50  1  0
 27 51  1  0
 28 52  1  0
 29 53  1  0
M  END
>  <meeko>  (1) 
{"is_sidechain": false}

>  <smiles>  (1) 
O=C(CNc1ccc(C(F)(F)F)cc1)NCCc1ccc(N2CCOCC2)cc1

>  <vina_score>  (1) 
-8.399

>  <job_id>  (1) 
ce2714344932014c

$$$$
