
     RDKit          3D

 58 62  0  0  0  0  0  0  0  0999 V2000
   54.9920   83.4040   27.2700 C   0  0  0  0  0  0  0  0  0  0  0  0
   53.9130   82.7610   26.4090 C   0  0  1  0  0  0  0  0  0  0  0  0
   53.3100   83.7310   25.3960 C   0  0  0  0  0  0  0  0  0  0  0  0
   52.6400   82.8000   24.4010 C   0  0  0  0  0  0  0  0  0  0  0  0
   53.6430   81.6650   24.2250 C   0  0  0  0  0  0  0  0  0  0  0  0
   54.4450   81.6010   25.5410 C   0  0  2  0  0  0  0  0  0  0  0  0
   54.3490   80.3170   26.2120 N   0  0  0  0  0  0  0  0  0  0  0  0
   53.2310   79.4920   26.2560 C   0  0  0  0  0  0  0  0  0  0  0  0
   52.1460   79.6300   25.7170 O   0  0  0  0  0  0  0  0  0  0  0  0
   53.5860   78.3230   27.1440 C   0  0  0  0  0  0  0  0  0  0  0  0
   53.1190   76.9270   26.8320 C   0  0  0  0  0  0  0  0  0  0  0  0
   52.5600   77.6610   28.0230 C   0  0  0  0  0  0  0  0  0  0  0  0
   54.9630   78.6300   27.6020 C   0  0  0  0  0  0  0  0  0  0  0  0
   55.8710   78.0410   28.4270 C   0  0  0  0  0  0  0  0  0  0  0  0
   57.0810   78.5890   28.6750 N   0  0  0  0  0  0  0  0  0  0  0  0
   57.3850   79.7660   28.0800 C   0  0  0  0  0  0  0  0  0  0  0  0
   58.6450   80.2650   28.3950 N   0  0  0  0  0  0  0  0  0  0  0  0
   59.2070   80.8320   29.5430 C   0  0  0  0  0  0  0  0  0  0  0  0
   60.0570   81.9410   29.5320 C   0  0  0  0  0  0  0  0  0  0  0  0
   60.6040   82.4520   30.7170 C   0  0  0  0  0  0  0  0  0  0  0  0
   60.3130   81.8620   31.9520 C   0  0  0  0  0  0  0  0  0  0  0  0
   60.9200   82.4040   33.2290 C   0  0  0  0  0  0  0  0  0  0  0  0
   61.6040   81.3800   34.0390 N   0  0  0  0  0  0  0  0  0  0  0  0
   61.2820   81.5650   35.4550 C   0  0  0  0  0  0  0  0  0  0  0  0
   63.0550   81.4270   33.8470 C   0  0  0  0  0  0  0  0  0  0  0  0
   59.4750   80.7430   31.9750 C   0  0  0  0  0  0  0  0  0  0  0  0
   58.9330   80.2400   30.7860 C   0  0  0  0  0  0  0  0  0  0  0  0
   56.5560   80.4110   27.2490 N   0  0  0  0  0  0  0  0  0  0  0  0
   55.3790   79.8200   27.0390 C   0  0  0  0  0  0  0  0  0  0  0  0
   54.7481   83.2586   28.3327 H   0  0  0  0  0  0  0  0  0  0  0  0
   55.9634   82.9374   27.0496 H   0  0  0  0  0  0  0  0  0  0  0  0
   55.0439   84.4804   27.0496 H   0  0  0  0  0  0  0  0  0  0  0  0
   53.1752   82.4180   27.1493 H   0  0  0  0  0  0  0  0  0  0  0  0
   52.5757   84.3969   25.8728 H   0  0  0  0  0  0  0  0  0  0  0  0
   54.0525   84.4000   24.9365 H   0  0  0  0  0  0  0  0  0  0  0  0
   51.6873   82.4216   24.7999 H   0  0  0  0  0  0  0  0  0  0  0  0
   52.3951   83.2997   23.4521 H   0  0  0  0  0  0  0  0  0  0  0  0
   53.1180   80.7143   24.0503 H   0  0  0  0  0  0  0  0  0  0  0  0
   54.3001   81.8375   23.3598 H   0  0  0  0  0  0  0  0  0  0  0  0
   55.5218   81.7066   25.3428 H   0  0  0  0  0  0  0  0  0  0  0  0
   52.4851   76.7427   25.9521 H   0  0  0  0  0  0  0  0  0  0  0  0
   53.6143   75.9570   26.6780 H   0  0  0  0  0  0  0  0  0  0  0  0
   51.5178   78.0127   28.0129 H   0  0  0  0  0  0  0  0  0  0  0  0
   52.4779   77.4491   29.0993 H   0  0  0  0  0  0  0  0  0  0  0  0
   55.6111   77.0866   28.9082 H   0  0  0  0  0  0  0  0  0  0  0  0
   59.2710   80.0870   27.6230 H   0  0  0  0  0  0  0  0  0  0  0  0
   60.3018   82.4228   28.5739 H   0  0  0  0  0  0  0  0  0  0  0  0
   61.2696   83.3268   30.6757 H   0  0  0  0  0  0  0  0  0  0  0  0
   61.6505   83.1824   32.9636 H   0  0  0  0  0  0  0  0  0  0  0  0
   60.0923   82.7967   33.8379 H   0  0  0  0  0  0  0  0  0  0  0  0
   62.0712   81.1116   36.0728 H   0  0  0  0  0  0  0  0  0  0  0  0
   61.2139   82.6400   35.6781 H   0  0  0  0  0  0  0  0  0  0  0  0
   60.3190   81.0825   35.6781 H   0  0  0  0  0  0  0  0  0  0  0  0
   63.5542   81.4432   34.8271 H   0  0  0  0  0  0  0  0  0  0  0  0
   63.3794   80.5389   33.2849 H   0  0  0  0  0  0  0  0  0  0  0  0
   63.3213   82.3342   33.2849 H   0  0  0  0  0  0  0  0  0  0  0  0
   59.2402   80.2551   32.9325 H   0  0  0  0  0  0  0  0  0  0  0  0
   58.2759   79.3587   30.8269 H   0  0  0  0  0  0  0  0  0  0  0  0
  1  2  1  0
  2  3  1  0
  3  4  1  0
  4  5  1  0
  5  6  1  0
  6  7  1  0
  7  8  1  0
  8  9  2  0
  8 10  1  0
 10 11  1  0
 11 12  1  0
 10 13  1  0
 13 14  2  0
 14 15  1  0
 15 16  2  0
 16 17  1  0
 17 18  1  0
 18 19  1  0
 19 20  2  0
 20 21  1  0
 21 22  1  0
 22 23  1  0
 23 24  1  0
 23 25  1  0
 21 26  2  0
 26 27  1  0
 16 28  1  0
 28 29  2  0
  6  2  1  0
 29  7  1  0
 12 10  1  0
 29 13  1  0
 27 18  2  0
  1 30  1  0
  1 31  1  0
  1 32  1  0
  2 33  1  1
  3 34  1  0
  3 35  1  0
  4 36  1  0
  4 37  1  0
  5 38  1  0
  5 39  1  0
  6 40  1  6
 11 41  1  0
 11 42  1  0
 12 43  1  0
 12 44  1  0
 14 45  1  0
 17 46  1  0
 19 47  1  0
 20 48  1  0
 22 49  1  0
 22 50  1  0
 24 51  1  0
 24 52  1  0
 24 53  1  0
 25 54  1  0
 25 55  1  0
 25 56  1  0
 26 57  1  0
 27 58  1  0
M  END
>  <meeko>  (1) 
{"is_sidechain": false}

>  <smiles>  (1) 
C[C@H]1CCC[C@@H]1N1C(=O)C2(CC2)c2cnc(Nc3ccc(CN(C)C)cc3)nc21

>  <vina_score>  (1) 
-8.967

>  <job_id>  (1) 
ce8cc952643a3094

$$$$
