
     RDKit          3D

 42 43  0  0  0  0  0  0  0  0999 V2000
   52.1850   75.1580   26.5100 C   0  0  0  0  0  0  0  0  0  0  0  0
   52.4410   76.2590   27.5370 C   0  0  0  0  0  0  0  0  0  0  0  0
   51.1940   76.4820   28.3950 C   0  0  0  0  0  0  0  0  0  0  0  0
   53.5570   75.8500   28.3940 N   0  0  0  0  0  0  0  0  0  0  0  0
   54.5050   76.8300   28.6730 C   0  0  0  0  0  0  0  0  0  0  0  0
   54.5820   78.0210   27.9620 C   0  0  0  0  0  0  0  0  0  0  0  0
   55.5750   78.9480   28.2830 C   0  0  0  0  0  0  0  0  0  0  0  0
   56.4880   78.6750   29.3050 C   0  0  0  0  0  0  0  0  0  0  0  0
   57.5530   79.6190   29.6720 C   0  0  0  0  0  0  0  0  0  0  0  0
   57.8740   79.8570   31.0200 C   0  0  0  0  0  0  0  0  0  0  0  0
   58.8880   80.7530   31.3740 C   0  0  0  0  0  0  0  0  0  0  0  0
   59.5850   81.4410   30.3790 C   0  0  0  0  0  0  0  0  0  0  0  0
   60.6750   82.3620   30.7730 C   0  0  0  0  0  0  0  0  0  0  0  0
   61.8040   81.8890   30.8830 O   0  0  0  0  0  0  0  0  0  0  0  0
   60.3840   83.7100   30.9790 N   0  0  0  0  0  0  0  0  0  0  0  0
   59.0540   84.2320   31.2680 C   0  0  0  0  0  0  0  0  0  0  0  0
   61.4900   84.6210   31.2110 C   0  0  0  0  0  0  0  0  0  0  0  0
   59.3010   81.2010   29.0320 C   0  0  0  0  0  0  0  0  0  0  0  0
   58.2870   80.3030   28.6850 C   0  0  0  0  0  0  0  0  0  0  0  0
   56.3280   77.4490   29.9490 C   0  0  0  0  0  0  0  0  0  0  0  0
   55.3730   76.5310   29.6550 N   0  0  0  0  0  0  0  0  0  0  0  0
   51.9656   74.2144   27.0310 H   0  0  0  0  0  0  0  0  0  0  0  0
   51.3277   75.4367   25.8796 H   0  0  0  0  0  0  0  0  0  0  0  0
   53.0773   75.0299   25.8796 H   0  0  0  0  0  0  0  0  0  0  0  0
   52.6838   77.1975   27.0172 H   0  0  0  0  0  0  0  0  0  0  0  0
   51.4677   76.4331   29.4593 H   0  0  0  0  0  0  0  0  0  0  0  0
   50.7670   77.4708   28.1713 H   0  0  0  0  0  0  0  0  0  0  0  0
   50.4508   75.7025   28.1713 H   0  0  0  0  0  0  0  0  0  0  0  0
   53.2540   75.5390   29.3170 H   0  0  0  0  0  0  0  0  0  0  0  0
   53.8668   78.2317   27.1532 H   0  0  0  0  0  0  0  0  0  0  0  0
   55.6390   79.8965   27.7296 H   0  0  0  0  0  0  0  0  0  0  0  0
   57.3184   79.3297   31.8095 H   0  0  0  0  0  0  0  0  0  0  0  0
   59.1356   80.9151   32.4334 H   0  0  0  0  0  0  0  0  0  0  0  0
   58.9109   84.2882   32.3572 H   0  0  0  0  0  0  0  0  0  0  0  0
   58.9519   85.2369   30.8324 H   0  0  0  0  0  0  0  0  0  0  0  0
   58.2956   83.5648   30.8324 H   0  0  0  0  0  0  0  0  0  0  0  0
   61.6414   84.7457   32.2934 H   0  0  0  0  0  0  0  0  0  0  0  0
   62.4044   84.2106   30.7577 H   0  0  0  0  0  0  0  0  0  0  0  0
   61.2623   85.5971   30.7577 H   0  0  0  0  0  0  0  0  0  0  0  0
   59.8734   81.7170   28.2471 H   0  0  0  0  0  0  0  0  0  0  0  0
   58.0592   80.1283   27.6231 H   0  0  0  0  0  0  0  0  0  0  0  0
   57.0313   77.2067   30.7593 H   0  0  0  0  0  0  0  0  0  0  0  0
  1  2  1  0
  2  3  1  0
  2  4  1  0
  4  5  1  0
  5  6  2  0
  6  7  1  0
  7  8  2  0
  8  9  1  0
  9 10  1  0
 10 11  2  0
 11 12  1  0
 12 13  1  0
 13 14  2  0
 13 15  1  0
 15 16  1  0
 15 17  1  0
 12 18  2  0
 18 19  1  0
  8 20  1  0
 20 21  2  0
 21  5  1  0
 19  9  2  0
  1 22  1  0
  1 23  1  0
  1 24  1  0
  2 25  1  0
  3 26  1  0
  3 27  1  0
  3 28  1  0
  4 29  1  0
  6 30  1  0
  7 31  1  0
 10 32  1  0
 11 33  1  0
 16 34  1  0
 16 35  1  0
 16 36  1  0
 17 37  1  0
 17 38  1  0
 17 39  1  0
 18 40  1  0
 19 41  1  0
 20 42  1  0
M  END
>  <meeko>  (1) 
{"is_sidechain": false}

>  <smiles>  (1) 
CC(C)Nc1ccc(-c2ccc(C(=O)N(C)C)cc2)cn1

>  <vina_score>  (1) 
-6.914

>  <job_id>  (1) 
ceca632cb07ee9ac

$$$$
