
     RDKit          3D

 41 42  0  0  0  0  0  0  0  0999 V2000
   52.9390   81.7290   23.6040 C   0  0  0  0  0  0  0  0  0  0  0  0
   52.9710   80.2080   23.6500 C   0  0  0  0  0  0  0  0  0  0  0  0
   53.3150   79.6960   25.0260 C   0  0  0  0  0  0  0  0  0  0  0  0
   53.6010   80.5850   26.0670 C   0  0  0  0  0  0  0  0  0  0  0  0
   53.8800   80.1090   27.3520 C   0  0  0  0  0  0  0  0  0  0  0  0
   53.8810   78.7340   27.6200 C   0  0  0  0  0  0  0  0  0  0  0  0
   54.1590   78.2260   29.0140 C   0  0  0  0  0  0  0  0  0  0  0  0
   55.4630   77.4580   29.1470 C   0  0  0  0  0  0  0  0  0  0  0  0
   55.5570   76.4860   29.9020 O   0  0  0  0  0  0  0  0  0  0  0  0
   56.6480   77.9200   28.3180 C   0  0  0  0  0  0  0  0  0  0  0  0
   57.4250   79.0270   28.9810 C   0  0  0  0  0  0  0  0  0  0  0  0
   58.1930   79.9180   28.2180 C   0  0  0  0  0  0  0  0  0  0  0  0
   58.9920   80.8740   28.8440 C   0  0  0  0  0  0  0  0  0  0  0  0
   59.0190   80.9370   30.2380 C   0  0  0  0  0  0  0  0  0  0  0  0
   60.1040   82.0750   31.0520 S   0  0  0  0  0  0  0  0  0  0  0  0
   61.5620   81.7460   30.2710 N   0  0  0  0  0  0  0  0  0  0  0  0
   60.2340   81.6790   32.4340 O   0  0  0  0  0  0  0  0  0  0  0  0
   59.7500   83.4180   30.6550 O   0  0  0  0  0  0  0  0  0  0  0  0
   58.2200   80.0940   31.0120 C   0  0  0  0  0  0  0  0  0  0  0  0
   57.4240   79.1400   30.3810 C   0  0  0  0  0  0  0  0  0  0  0  0
   53.5790   77.8470   26.5800 C   0  0  0  0  0  0  0  0  0  0  0  0
   53.3040   78.3220   25.2950 C   0  0  0  0  0  0  0  0  0  0  0  0
   52.9306   82.1267   24.6295 H   0  0  0  0  0  0  0  0  0  0  0  0
   53.8296   82.0986   23.0746 H   0  0  0  0  0  0  0  0  0  0  0  0
   52.0337   82.0609   23.0746 H   0  0  0  0  0  0  0  0  0  0  0  0
   51.9814   79.8223   23.3638 H   0  0  0  0  0  0  0  0  0  0  0  0
   53.7476   79.8613   22.9524 H   0  0  0  0  0  0  0  0  0  0  0  0
   53.6065   81.6678   25.8734 H   0  0  0  0  0  0  0  0  0  0  0  0
   54.1009   80.8214   28.1605 H   0  0  0  0  0  0  0  0  0  0  0  0
   54.1957   79.0891   29.6950 H   0  0  0  0  0  0  0  0  0  0  0  0
   53.3505   77.5225   29.2618 H   0  0  0  0  0  0  0  0  0  0  0  0
   57.3208   77.0645   28.1585 H   0  0  0  0  0  0  0  0  0  0  0  0
   56.2561   78.3120   27.3679 H   0  0  0  0  0  0  0  0  0  0  0  0
   58.1651   79.8625   27.1198 H   0  0  0  0  0  0  0  0  0  0  0  0
   59.5953   81.5719   28.2449 H   0  0  0  0  0  0  0  0  0  0  0  0
   61.7980   82.4540   29.5720 H   0  0  0  0  0  0  0  0  0  0  0  0
   62.2940   81.6610   30.9770 H   0  0  0  0  0  0  0  0  0  0  0  0
   58.2187   80.1818   32.1085 H   0  0  0  0  0  0  0  0  0  0  0  0
   56.7911   78.4714   30.9830 H   0  0  0  0  0  0  0  0  0  0  0  0
   53.5580   76.7649   26.7764 H   0  0  0  0  0  0  0  0  0  0  0  0
   53.0769   77.6102   24.4877 H   0  0  0  0  0  0  0  0  0  0  0  0
  1  2  1  0
  2  3  1  0
  3  4  1  0
  4  5  2  0
  5  6  1  0
  6  7  1  0
  7  8  1  0
  8  9  2  0
  8 10  1  0
 10 11  1  0
 11 12  1  0
 12 13  2  0
 13 14  1  0
 14 15  1  0
 15 16  1  0
 15 17  2  0
 15 18  2  0
 14 19  2  0
 19 20  1  0
  6 21  2  0
 21 22  1  0
 22  3  2  0
 20 11  2  0
  1 23  1  0
  1 24  1  0
  1 25  1  0
  2 26  1  0
  2 27  1  0
  4 28  1  0
  5 29  1  0
  7 30  1  0
  7 31  1  0
 10 32  1  0
 10 33  1  0
 12 34  1  0
 13 35  1  0
 16 36  1  0
 16 37  1  0
 19 38  1  0
 20 39  1  0
 21 40  1  0
 22 41  1  0
M  END
>  <meeko>  (1) 
{"is_sidechain": false}

>  <smiles>  (1) 
CCc1ccc(CC(=O)Cc2ccc(S(N)(=O)=O)cc2)cc1

>  <vina_score>  (1) 
-7.916

>  <job_id>  (1) 
ced94cd013675549

$$$$
