
     RDKit          3D

 45 47  0  0  0  0  0  0  0  0999 V2000
   51.0620   81.3680   22.0110 C   0  0  0  0  0  0  0  0  0  0  0  0
   50.8810   80.6070   23.1980 O   0  0  0  0  0  0  0  0  0  0  0  0
   51.9810   80.4330   23.9920 C   0  0  0  0  0  0  0  0  0  0  0  0
   52.1210   81.3750   25.0120 C   0  0  0  0  0  0  0  0  0  0  0  0
   53.2030   81.3150   25.8970 C   0  0  0  0  0  0  0  0  0  0  0  0
   54.1710   80.3060   25.7840 C   0  0  0  0  0  0  0  0  0  0  0  0
   55.3020   80.2240   26.7270 C   0  0  0  0  0  0  0  0  0  0  0  0
   55.3780   79.1540   27.6350 C   0  0  0  0  0  0  0  0  0  0  0  0
   56.4350   79.0410   28.5450 C   0  0  0  0  0  0  0  0  0  0  0  0
   57.4570   79.9970   28.5770 C   0  0  0  0  0  0  0  0  0  0  0  0
   58.6120   79.9010   29.5610 C   0  0  0  0  0  0  0  0  0  0  0  0
   59.6860   80.9840   29.3340 C   0  0  0  0  0  0  0  0  0  0  0  0
   59.6470   82.0770   30.4010 C   0  0  0  0  0  0  0  0  0  0  0  0
   59.7600   81.5780   31.7770 N   0  0  0  0  0  0  0  0  0  0  0  0
   61.1110   81.7310   32.3110 C   0  0  0  0  0  0  0  0  0  0  0  0
   59.2760   80.2050   31.9650 C   0  0  0  0  0  0  0  0  0  0  0  0
   58.1250   79.8690   31.0200 C   0  0  0  0  0  0  0  0  0  0  0  0
   57.3930   81.0700   27.6760 C   0  0  0  0  0  0  0  0  0  0  0  0
   56.3330   81.1760   26.7670 C   0  0  0  0  0  0  0  0  0  0  0  0
   56.3100   82.2310   25.8930 O   0  0  0  0  0  0  0  0  0  0  0  0
   54.0170   79.3640   24.7550 C   0  0  0  0  0  0  0  0  0  0  0  0
   52.9350   79.4240   23.8660 C   0  0  0  0  0  0  0  0  0  0  0  0
   51.3091   82.4067   22.2755 H   0  0  0  0  0  0  0  0  0  0  0  0
   51.8823   80.9352   21.4195 H   0  0  0  0  0  0  0  0  0  0  0  0
   50.1347   81.3509   21.4195 H   0  0  0  0  0  0  0  0  0  0  0  0
   51.3724   82.1735   25.1214 H   0  0  0  0  0  0  0  0  0  0  0  0
   53.2959   82.0693   26.6922 H   0  0  0  0  0  0  0  0  0  0  0  0
   54.5886   78.3879   27.6302 H   0  0  0  0  0  0  0  0  0  0  0  0
   56.4631   78.1913   29.2431 H   0  0  0  0  0  0  0  0  0  0  0  0
   59.1035   78.9373   29.3618 H   0  0  0  0  0  0  0  0  0  0  0  0
   60.6773   80.5076   29.3526 H   0  0  0  0  0  0  0  0  0  0  0  0
   59.4840   81.4575   28.3619 H   0  0  0  0  0  0  0  0  0  0  0  0
   60.4808   82.7701   30.2157 H   0  0  0  0  0  0  0  0  0  0  0  0
   58.6634   82.5629   30.3204 H   0  0  0  0  0  0  0  0  0  0  0  0
   61.0734   81.7267   33.4103 H   0  0  0  0  0  0  0  0  0  0  0  0
   61.7395   80.8983   31.9624 H   0  0  0  0  0  0  0  0  0  0  0  0
   61.5374   82.6832   31.9624 H   0  0  0  0  0  0  0  0  0  0  0  0
   60.1053   79.5073   31.7765 H   0  0  0  0  0  0  0  0  0  0  0  0
   58.9056   80.1140   32.9968 H   0  0  0  0  0  0  0  0  0  0  0  0
   57.7435   78.8642   31.2542 H   0  0  0  0  0  0  0  0  0  0  0  0
   57.3248   80.6127   31.1487 H   0  0  0  0  0  0  0  0  0  0  0  0
   58.1829   81.8355   27.6835 H   0  0  0  0  0  0  0  0  0  0  0  0
   56.4920   81.9060   24.9970 H   0  0  0  0  0  0  0  0  0  0  0  0
   54.7612   78.5616   24.6439 H   0  0  0  0  0  0  0  0  0  0  0  0
   52.8383   78.6737   23.0674 H   0  0  0  0  0  0  0  0  0  0  0  0
  1  2  1  0
  2  3  1  0
  3  4  1  0
  4  5  2  0
  5  6  1  0
  6  7  1  0
  7  8  1  0
  8  9  2  0
  9 10  1  0
 10 11  1  0
 11 12  1  0
 12 13  1  0
 13 14  1  0
 14 15  1  0
 14 16  1  0
 16 17  1  0
 10 18  2  0
 18 19  1  0
 19 20  1  0
  6 21  2  0
 21 22  1  0
 22  3  2  0
 19  7  2  0
 17 11  1  0
  1 23  1  0
  1 24  1  0
  1 25  1  0
  4 26  1  0
  5 27  1  0
  8 28  1  0
  9 29  1  0
 11 30  1  0
 12 31  1  0
 12 32  1  0
 13 33  1  0
 13 34  1  0
 15 35  1  0
 15 36  1  0
 15 37  1  0
 16 38  1  0
 16 39  1  0
 17 40  1  0
 17 41  1  0
 18 42  1  0
 20 43  1  0
 21 44  1  0
 22 45  1  0
M  END
>  <meeko>  (1) 
{"is_sidechain": false}

>  <smiles>  (1) 
COc1ccc(-c2ccc(C3CCN(C)CC3)cc2O)cc1

>  <vina_score>  (1) 
-7.591

>  <job_id>  (1) 
cf8f7c6b6a19d0bb

$$$$
