
     RDKit          3D

 42 43  0  0  0  0  0  0  0  0999 V2000
   60.5660   81.8800   31.2550 C   0  0  0  0  0  0  0  0  0  0  0  0
   59.0880   81.6830   30.8700 C   0  0  0  0  0  0  0  0  0  0  0  0
   58.2930   81.3150   32.1300 C   0  0  0  0  0  0  0  0  0  0  0  0
   58.5600   82.9990   30.2780 C   0  0  0  0  0  0  0  0  0  0  0  0
   58.9800   80.5490   29.8300 C   0  0  0  0  0  0  0  0  0  0  0  0
   59.6850   80.5120   28.8230 O   0  0  0  0  0  0  0  0  0  0  0  0
   58.1660   79.4970   30.1900 N   0  0  0  0  0  0  0  0  0  0  0  0
   57.1500   79.1070   29.3360 C   0  0  0  0  0  0  0  0  0  0  0  0
   56.7690   79.7890   28.3940 O   0  0  0  0  0  0  0  0  0  0  0  0
   56.6080   77.9160   29.7530 N   0  0  0  0  0  0  0  0  0  0  0  0
   55.4940   77.2980   29.2070 C   0  0  0  0  0  0  0  0  0  0  0  0
   55.3020   75.9810   29.3140 N   0  0  0  0  0  0  0  0  0  0  0  0
   54.2020   75.4810   28.7190 C   0  0  0  0  0  0  0  0  0  0  0  0
   53.3060   76.2520   28.0250 C   0  0  0  0  0  0  0  0  0  0  0  0
   52.2690   75.6840   27.3960 F   0  0  0  0  0  0  0  0  0  0  0  0
   53.5730   77.6090   27.9650 C   0  0  0  0  0  0  0  0  0  0  0  0
   52.7690   78.5220   27.2730 N   0  0  0  0  0  0  0  0  0  0  0  0
   53.0970   79.5600   26.3740 C   0  0  0  0  0  0  0  0  0  0  0  0
   53.3100   80.8970   26.7320 C   0  0  0  0  0  0  0  0  0  0  0  0
   53.3100   81.2710   28.0200 F   0  0  0  0  0  0  0  0  0  0  0  0
   53.5940   81.8780   25.7780 C   0  0  0  0  0  0  0  0  0  0  0  0
   53.6730   81.5410   24.4280 C   0  0  0  0  0  0  0  0  0  0  0  0
   53.4770   80.2190   24.0410 C   0  0  0  0  0  0  0  0  0  0  0  0
   53.1950   79.2520   25.0070 C   0  0  0  0  0  0  0  0  0  0  0  0
   53.0220   77.9820   24.6040 F   0  0  0  0  0  0  0  0  0  0  0  0
   54.6850   78.1330   28.5300 N   0  0  0  0  0  0  0  0  0  0  0  0
   60.6609   81.8926   32.3508 H   0  0  0  0  0  0  0  0  0  0  0  0
   61.1651   81.0538   30.8446 H   0  0  0  0  0  0  0  0  0  0  0  0
   60.9278   82.8343   30.8446 H   0  0  0  0  0  0  0  0  0  0  0  0
   58.8758   81.5848   33.0231 H   0  0  0  0  0  0  0  0  0  0  0  0
   57.3394   81.8633   32.1350 H   0  0  0  0  0  0  0  0  0  0  0  0
   58.0940   80.2332   32.1350 H   0  0  0  0  0  0  0  0  0  0  0  0
   58.2852   83.6839   31.0938 H   0  0  0  0  0  0  0  0  0  0  0  0
   59.3420   83.4621   29.6582 H   0  0  0  0  0  0  0  0  0  0  0  0
   57.6748   82.7932   29.6582 H   0  0  0  0  0  0  0  0  0  0  0  0
   57.8510   79.4780   31.1460 H   0  0  0  0  0  0  0  0  0  0  0  0
   57.1720   77.2980   30.3110 H   0  0  0  0  0  0  0  0  0  0  0  0
   54.0132   74.3999   28.7937 H   0  0  0  0  0  0  0  0  0  0  0  0
   51.8820   78.0860   27.0340 H   0  0  0  0  0  0  0  0  0  0  0  0
   53.7557   82.9193   26.0936 H   0  0  0  0  0  0  0  0  0  0  0  0
   53.8884   82.3134   23.6750 H   0  0  0  0  0  0  0  0  0  0  0  0
   53.5439   79.9376   22.9797 H   0  0  0  0  0  0  0  0  0  0  0  0
  1  2  1  0
  2  3  1  0
  2  4  1  0
  2  5  1  0
  5  6  2  0
  5  7  1  0
  7  8  1  0
  8  9  2  0
  8 10  1  0
 10 11  1  0
 11 12  2  0
 12 13  1  0
 13 14  2  0
 14 15  1  0
 14 16  1  0
 16 17  1  0
 17 18  1  0
 18 19  2  0
 19 20  1  0
 19 21  1  0
 21 22  2  0
 22 23  1  0
 23 24  2  0
 24 25  1  0
 16 26  2  0
 26 11  1  0
 24 18  1  0
  1 27  1  0
  1 28  1  0
  1 29  1  0
  3 30  1  0
  3 31  1  0
  3 32  1  0
  4 33  1  0
  4 34  1  0
  4 35  1  0
  7 36  1  0
 10 37  1  0
 13 38  1  0
 17 39  1  0
 21 40  1  0
 22 41  1  0
 23 42  1  0
M  END
>  <meeko>  (1) 
{"is_sidechain": false}

>  <smiles>  (1) 
CC(C)(C)C(=O)NC(=O)Nc1ncc(F)c(Nc2c(F)cccc2F)n1

>  <vina_score>  (1) 
-8.752

>  <job_id>  (1) 
cfce15d34cc8b6ae

$$$$
