
     RDKit          3D

 62 64  0  0  0  0  0  0  0  0999 V2000
   66.8100   80.9770   30.3760 C   0  0  0  0  0  0  0  0  0  0  0  0
   65.7970   82.0640   30.6370 C   0  0  0  0  0  0  0  0  0  0  0  0
   66.3090   83.4830   30.6560 C   0  0  0  0  0  0  0  0  0  0  0  0
   64.5760   81.7090   30.8410 N   0  0  0  0  0  0  0  0  0  0  0  0
   63.5700   82.7010   31.1650 C   0  0  0  0  0  0  0  0  0  0  0  0
   62.8170   82.2360   32.3150 N   0  0  0  0  0  0  0  0  0  0  0  0
   63.5690   81.5790   33.3680 C   0  0  0  0  0  0  0  0  0  0  0  0
   61.5520   82.7310   32.6310 C   0  0  0  0  0  0  0  0  0  0  0  0
   61.1250   82.8930   33.7710 O   0  0  0  0  0  0  0  0  0  0  0  0
   60.6030   83.0340   31.4780 C   0  0  0  0  0  0  0  0  0  0  0  0
   60.4890   84.1830   31.0680 O   0  0  0  0  0  0  0  0  0  0  0  0
   59.8540   81.9110   30.8510 C   0  0  0  0  0  0  0  0  0  0  0  0
   59.8630   81.7970   29.4580 C   0  0  0  0  0  0  0  0  0  0  0  0
   59.1860   80.7450   28.8320 C   0  0  0  0  0  0  0  0  0  0  0  0
   58.4790   79.7850   29.5740 C   0  0  0  0  0  0  0  0  0  0  0  0
   57.8460   78.7450   28.8850 N   0  0  0  0  0  0  0  0  0  0  0  0
   56.5210   78.3470   28.7380 C   0  0  0  0  0  0  0  0  0  0  0  0
   55.9130   77.5490   29.6310 N   0  0  0  0  0  0  0  0  0  0  0  0
   54.6230   77.2280   29.4010 C   0  0  0  0  0  0  0  0  0  0  0  0
   53.9220   77.6650   28.3100 C   0  0  0  0  0  0  0  0  0  0  0  0
   52.6420   77.3210   28.1260 F   0  0  0  0  0  0  0  0  0  0  0  0
   54.6240   78.4580   27.4310 C   0  0  0  0  0  0  0  0  0  0  0  0
   54.0110   79.0280   26.2400 C   0  0  0  0  0  0  0  0  0  0  0  0
   53.4640   78.3560   25.1630 C   0  0  0  0  0  0  0  0  0  0  0  0
   52.9510   79.2120   24.2360 N   0  0  0  0  0  0  0  0  0  0  0  0
   53.1750   80.4200   24.7080 C   0  0  0  0  0  0  0  0  0  0  0  0
   52.7560   81.6740   24.0270 C   0  0  0  0  0  0  0  0  0  0  0  0
   53.8570   80.3680   25.9170 N   0  0  0  0  0  0  0  0  0  0  0  0
   54.3460   81.5510   26.6260 C   0  0  0  0  0  0  0  0  0  0  0  0
   55.5460   82.1940   25.9330 C   0  0  0  0  0  0  0  0  0  0  0  0
   53.2670   82.5730   26.9930 C   0  0  0  0  0  0  0  0  0  0  0  0
   55.9140   78.8100   27.6320 N   0  0  0  0  0  0  0  0  0  0  0  0
   58.4890   79.9090   30.9660 C   0  0  0  0  0  0  0  0  0  0  0  0
   59.1630   80.9600   31.6050 C   0  0  0  0  0  0  0  0  0  0  0  0
   67.1785   80.5815   31.3340 H   0  0  0  0  0  0  0  0  0  0  0  0
   66.3380   80.1661   29.8018 H   0  0  0  0  0  0  0  0  0  0  0  0
   67.6521   81.3908   29.8018 H   0  0  0  0  0  0  0  0  0  0  0  0
   66.4290   83.8156   31.6976 H   0  0  0  0  0  0  0  0  0  0  0  0
   67.2805   83.5292   30.1421 H   0  0  0  0  0  0  0  0  0  0  0  0
   65.5908   84.1389   30.1421 H   0  0  0  0  0  0  0  0  0  0  0  0
   64.0564   83.6585   31.4027 H   0  0  0  0  0  0  0  0  0  0  0  0
   62.8961   82.8476   30.3080 H   0  0  0  0  0  0  0  0  0  0  0  0
   63.1923   81.9081   34.3477 H   0  0  0  0  0  0  0  0  0  0  0  0
   63.4514   80.4891   33.2772 H   0  0  0  0  0  0  0  0  0  0  0  0
   64.6333   81.8418   33.2772 H   0  0  0  0  0  0  0  0  0  0  0  0
   60.4047   82.5376   28.8514 H   0  0  0  0  0  0  0  0  0  0  0  0
   59.2079   80.6681   27.7349 H   0  0  0  0  0  0  0  0  0  0  0  0
   58.4180   78.2070   28.2500 H   0  0  0  0  0  0  0  0  0  0  0  0
   54.1084   76.5820   30.1275 H   0  0  0  0  0  0  0  0  0  0  0  0
   53.4452   77.2604   25.0661 H   0  0  0  0  0  0  0  0  0  0  0  0
   52.5022   82.4336   24.7811 H   0  0  0  0  0  0  0  0  0  0  0  0
   53.5798   82.0426   23.3981 H   0  0  0  0  0  0  0  0  0  0  0  0
   51.8761   81.4733   23.3981 H   0  0  0  0  0  0  0  0  0  0  0  0
   54.6972   81.1630   27.5935 H   0  0  0  0  0  0  0  0  0  0  0  0
   56.2487   82.5705   26.6909 H   0  0  0  0  0  0  0  0  0  0  0  0
   56.0509   81.4456   25.3045 H   0  0  0  0  0  0  0  0  0  0  0  0
   55.2025   83.0289   25.3045 H   0  0  0  0  0  0  0  0  0  0  0  0
   53.1891   82.6468   28.0878 H   0  0  0  0  0  0  0  0  0  0  0  0
   53.5359   83.5554   26.5775 H   0  0  0  0  0  0  0  0  0  0  0  0
   52.3007   82.2512   26.5775 H   0  0  0  0  0  0  0  0  0  0  0  0
   57.9555   79.1645   31.5751 H   0  0  0  0  0  0  0  0  0  0  0  0
   59.1473   81.0354   32.7023 H   0  0  0  0  0  0  0  0  0  0  0  0
  1  2  1  0
  2  3  1  0
  2  4  2  3
  4  5  1  0
  5  6  1  0
  6  7  1  0
  6  8  1  0
  8  9  2  0
  8 10  1  0
 10 11  2  0
 10 12  1  0
 12 13  1  0
 13 14  2  0
 14 15  1  0
 15 16  1  0
 16 17  1  0
 17 18  2  0
 18 19  1  0
 19 20  2  0
 20 21  1  0
 20 22  1  0
 22 23  1  0
 23 24  2  0
 24 25  1  0
 25 26  2  0
 26 27  1  0
 26 28  1  0
 28 29  1  0
 29 30  1  0
 29 31  1  0
 22 32  2  0
 15 33  2  0
 33 34  1  0
 34 12  2  0
 32 17  1  0
 28 23  1  0
  1 35  1  0
  1 36  1  0
  1 37  1  0
  3 38  1  0
  3 39  1  0
  3 40  1  0
  5 41  1  0
  5 42  1  0
  7 43  1  0
  7 44  1  0
  7 45  1  0
 13 46  1  0
 14 47  1  0
 16 48  1  0
 19 49  1  0
 24 50  1  0
 27 51  1  0
 27 52  1  0
 27 53  1  0
 29 54  1  0
 30 55  1  0
 30 56  1  0
 30 57  1  0
 31 58  1  0
 31 59  1  0
 31 60  1  0
 33 61  1  0
 34 62  1  0
M  END
>  <meeko>  (1) 
{"is_sidechain": false}

>  <smiles>  (1) 
CC(C)=NCN(C)C(=O)C(=O)c1ccc(Nc2ncc(F)c(-c3cnc(C)n3C(C)C)n2)cc1

>  <vina_score>  (1) 
-9.041

>  <job_id>  (1) 
cfe8e7c15ebd54e8

$$$$
