
     RDKit          3D

 51 53  0  0  0  0  0  0  0  0999 V2000
   54.2660   81.9120   26.4250 C   0  0  0  0  0  0  0  0  0  0  0  0
   54.1630   80.4210   26.0630 C   0  0  1  0  0  0  0  0  0  0  0  0
   53.6810   79.6710   27.2340 N   0  0  0  0  0  0  0  0  0  0  0  0
   54.5560   78.8140   27.9070 C   0  0  0  0  0  0  0  0  0  0  0  0
   55.8340   79.2030   28.0980 N   0  0  0  0  0  0  0  0  0  0  0  0
   56.6930   78.3570   28.6930 C   0  0  0  0  0  0  0  0  0  0  0  0
   57.9810   78.8580   28.8590 N   0  0  0  0  0  0  0  0  0  0  0  0
   58.5440   79.8570   29.6590 C   0  0  0  0  0  0  0  0  0  0  0  0
   58.2560   79.8540   31.0350 C   0  0  0  0  0  0  0  0  0  0  0  0
   58.7920   80.8150   31.8990 C   0  0  0  0  0  0  0  0  0  0  0  0
   59.6370   81.7960   31.3870 C   0  0  0  0  0  0  0  0  0  0  0  0
   60.3380   83.0200   32.4710 S   0  0  0  0  0  0  0  0  0  0  0  0
   59.6860   82.8100   33.8480 N   0  0  0  0  0  0  0  0  0  0  0  0
   61.7670   83.0410   32.2340 O   0  0  0  0  0  0  0  0  0  0  0  0
   59.6460   84.5810   31.8380 C   0  0  0  0  0  0  0  0  0  0  0  0
   59.2120   85.5630   32.8920 C   0  0  0  0  0  0  0  0  0  0  0  0
   58.1810   84.7670   32.1350 C   0  0  0  0  0  0  0  0  0  0  0  0
   59.9390   81.8250   30.0250 C   0  0  0  0  0  0  0  0  0  0  0  0
   59.3950   80.8570   29.1750 C   0  0  0  0  0  0  0  0  0  0  0  0
   56.3500   77.1300   29.1020 N   0  0  0  0  0  0  0  0  0  0  0  0
   55.0770   76.7470   28.8840 C   0  0  0  0  0  0  0  0  0  0  0  0
   54.1350   77.5470   28.2830 C   0  0  0  0  0  0  0  0  0  0  0  0
   52.3760   76.9110   28.0250 Br  0  0  0  0  0  0  0  0  0  0  0  0
   53.1650   80.1660   24.8770 C   0  0  0  0  0  0  0  0  0  0  0  0
   53.3820   78.7710   24.2700 C   0  0  0  0  0  0  0  0  0  0  0  0
   53.3060   81.2210   23.7720 C   0  0  0  0  0  0  0  0  0  0  0  0
   51.8160   80.2340   25.3740 O   0  0  0  0  0  0  0  0  0  0  0  0
   54.2737   82.0240   27.5193 H   0  0  0  0  0  0  0  0  0  0  0  0
   55.1950   82.3274   26.0073 H   0  0  0  0  0  0  0  0  0  0  0  0
   53.4030   82.4512   26.0073 H   0  0  0  0  0  0  0  0  0  0  0  0
   55.1649   80.0881   25.7543 H   0  0  0  0  0  0  0  0  0  0  0  0
   53.1620   80.2770   27.8700 H   0  0  0  0  0  0  0  0  0  0  0  0
   58.6110   78.3240   28.2780 H   0  0  0  0  0  0  0  0  0  0  0  0
   57.5928   79.0768   31.4425 H   0  0  0  0  0  0  0  0  0  0  0  0
   58.5484   80.7958   32.9715 H   0  0  0  0  0  0  0  0  0  0  0  0
   59.9870   81.9230   34.2520 H   0  0  0  0  0  0  0  0  0  0  0  0
   60.2804   84.6393   30.9413 H   0  0  0  0  0  0  0  0  0  0  0  0
   59.4009   85.3488   33.9543 H   0  0  0  0  0  0  0  0  0  0  0  0
   59.3864   86.6333   33.0766 H   0  0  0  0  0  0  0  0  0  0  0  0
   57.6174   83.9713   32.6442 H   0  0  0  0  0  0  0  0  0  0  0  0
   57.2911   85.0146   31.5377 H   0  0  0  0  0  0  0  0  0  0  0  0
   60.6015   82.6052   29.6221 H   0  0  0  0  0  0  0  0  0  0  0  0
   59.6412   80.8821   28.1032 H   0  0  0  0  0  0  0  0  0  0  0  0
   54.7751   75.7390   29.2045 H   0  0  0  0  0  0  0  0  0  0  0  0
   53.4967   78.0334   25.0779 H   0  0  0  0  0  0  0  0  0  0  0  0
   52.5148   78.5025   23.6488 H   0  0  0  0  0  0  0  0  0  0  0  0
   54.2898   78.7786   23.6488 H   0  0  0  0  0  0  0  0  0  0  0  0
   53.4386   82.2135   24.2274 H   0  0  0  0  0  0  0  0  0  0  0  0
   54.1805   80.9840   23.1482 H   0  0  0  0  0  0  0  0  0  0  0  0
   52.4000   81.2219   23.1482 H   0  0  0  0  0  0  0  0  0  0  0  0
   51.4380   81.0830   25.0870 H   0  0  0  0  0  0  0  0  0  0  0  0
  1  2  1  0
  2  3  1  0
  3  4  1  0
  4  5  2  0
  5  6  1  0
  6  7  1  0
  7  8  1  0
  8  9  1  0
  9 10  2  0
 10 11  1  0
 11 12  1  0
 12 13  2  0
 12 14  2  0
 12 15  1  0
 15 16  1  0
 16 17  1  0
 11 18  2  0
 18 19  1  0
  6 20  2  0
 20 21  1  0
 21 22  2  0
 22 23  1  0
  2 24  1  0
 24 25  1  0
 24 26  1  0
 24 27  1  0
 22  4  1  0
 19  8  2  0
 17 15  1  0
  1 28  1  0
  1 29  1  0
  1 30  1  0
  2 31  1  6
  3 32  1  0
  7 33  1  0
  9 34  1  0
 10 35  1  0
 13 36  1  0
 15 37  1  0
 16 38  1  0
 16 39  1  0
 17 40  1  0
 17 41  1  0
 18 42  1  0
 19 43  1  0
 21 44  1  0
 25 45  1  0
 25 46  1  0
 25 47  1  0
 26 48  1  0
 26 49  1  0
 26 50  1  0
 27 51  1  0
M  END
>  <meeko>  (1) 
{"is_sidechain": false}

>  <smiles>  (1) 
C[C@@H](Nc1nc(Nc2ccc(S(=N)(=O)C3CC3)cc2)ncc1Br)C(C)(C)O

>  <vina_score>  (1) 
-7.703

>  <job_id>  (1) 
d03f79109a7721f2

$$$$
