
     RDKit          3D

 50 52  0  0  0  0  0  0  0  0999 V2000
   52.2000   76.4290   27.9430 C   0  0  0  0  0  0  0  0  0  0  0  0
   53.3550   77.3830   27.8580 C   0  0  0  0  0  0  0  0  0  0  0  0
   54.3890   77.3290   28.7980 C   0  0  0  0  0  0  0  0  0  0  0  0
   55.4800   78.1970   28.7020 C   0  0  0  0  0  0  0  0  0  0  0  0
   55.5640   79.1230   27.6530 C   0  0  0  0  0  0  0  0  0  0  0  0
   56.7340   80.0760   27.5580 C   0  0  0  0  0  0  0  0  0  0  0  0
   57.8970   79.5310   28.2520 N   0  0  0  0  0  0  0  0  0  0  0  0
   58.4790   80.2430   29.3080 C   0  0  0  0  0  0  0  0  0  0  0  0
   58.2020   79.8510   30.6230 C   0  0  0  0  0  0  0  0  0  0  0  0
   58.7920   80.4930   31.7210 C   0  0  0  0  0  0  0  0  0  0  0  0
   59.7100   81.5300   31.5460 C   0  0  0  0  0  0  0  0  0  0  0  0
   60.3330   82.2170   32.6050 N   0  0  0  0  0  0  0  0  0  0  0  0
   61.7300   82.5810   32.3030 C   0  0  0  0  0  0  0  0  0  0  0  0
   62.3790   83.1710   33.5500 C   0  0  0  0  0  0  0  0  0  0  0  0
   62.6850   82.1390   34.6580 C   0  0  0  0  0  0  0  0  0  0  0  0
   62.3950   80.7310   34.3610 N   0  0  0  0  0  0  0  0  0  0  0  0
   63.0600   79.8670   35.3370 C   0  0  0  0  0  0  0  0  0  0  0  0
   60.9550   80.4290   34.2720 C   0  0  0  0  0  0  0  0  0  0  0  0
   60.1040   81.6830   33.9600 C   0  0  0  0  0  0  0  0  0  0  0  0
   60.0180   81.8910   30.2270 C   0  0  0  0  0  0  0  0  0  0  0  0
   59.4270   81.2510   29.1280 C   0  0  0  0  0  0  0  0  0  0  0  0
   54.5280   79.1700   26.7110 C   0  0  0  0  0  0  0  0  0  0  0  0
   53.4370   78.3030   26.8080 C   0  0  0  0  0  0  0  0  0  0  0  0
   51.9631   76.2333   28.9992 H   0  0  0  0  0  0  0  0  0  0  0  0
   51.3231   76.8696   27.4461 H   0  0  0  0  0  0  0  0  0  0  0  0
   52.4671   75.4847   27.4461 H   0  0  0  0  0  0  0  0  0  0  0  0
   54.3432   76.5981   29.6188 H   0  0  0  0  0  0  0  0  0  0  0  0
   56.2797   78.1532   29.4561 H   0  0  0  0  0  0  0  0  0  0  0  0
   56.9862   80.2347   26.4991 H   0  0  0  0  0  0  0  0  0  0  0  0
   56.4542   81.0298   28.0291 H   0  0  0  0  0  0  0  0  0  0  0  0
   57.7320   78.5610   28.5110 H   0  0  0  0  0  0  0  0  0  0  0  0
   57.5044   79.0189   30.7992 H   0  0  0  0  0  0  0  0  0  0  0  0
   58.5265   80.1735   32.7395 H   0  0  0  0  0  0  0  0  0  0  0  0
   62.2840   81.6836   31.9903 H   0  0  0  0  0  0  0  0  0  0  0  0
   61.7497   83.3234   31.4916 H   0  0  0  0  0  0  0  0  0  0  0  0
   63.3247   83.6478   33.2530 H   0  0  0  0  0  0  0  0  0  0  0  0
   61.6553   83.8825   33.9743 H   0  0  0  0  0  0  0  0  0  0  0  0
   63.7570   82.2138   34.8931 H   0  0  0  0  0  0  0  0  0  0  0  0
   62.0074   82.4002   35.4842 H   0  0  0  0  0  0  0  0  0  0  0  0
   62.8047   80.1987   36.3543 H   0  0  0  0  0  0  0  0  0  0  0  0
   62.7258   78.8286   35.1952 H   0  0  0  0  0  0  0  0  0  0  0  0
   64.1493   79.9242   35.1952 H   0  0  0  0  0  0  0  0  0  0  0  0
   60.7986   79.6890   33.4732 H   0  0  0  0  0  0  0  0  0  0  0  0
   60.6338   80.0425   35.2505 H   0  0  0  0  0  0  0  0  0  0  0  0
   59.0410   81.4170   34.0561 H   0  0  0  0  0  0  0  0  0  0  0  0
   60.4000   82.4653   34.6744 H   0  0  0  0  0  0  0  0  0  0  0  0
   60.7433   82.6986   30.0491 H   0  0  0  0  0  0  0  0  0  0  0  0
   59.7151   81.5481   28.1088 H   0  0  0  0  0  0  0  0  0  0  0  0
   54.5742   79.8969   25.8867 H   0  0  0  0  0  0  0  0  0  0  0  0
   52.6374   78.3442   26.0537 H   0  0  0  0  0  0  0  0  0  0  0  0
  1  2  1  0
  2  3  1  0
  3  4  2  0
  4  5  1  0
  5  6  1  0
  6  7  1  0
  7  8  1  0
  8  9  1  0
  9 10  2  0
 10 11  1  0
 11 12  1  0
 12 13  1  0
 13 14  1  0
 14 15  1  0
 15 16  1  0
 16 17  1  0
 16 18  1  0
 18 19  1  0
 11 20  2  0
 20 21  1  0
  5 22  2  0
 22 23  1  0
 23  2  2  0
 21  8  2  0
 19 12  1  0
  1 24  1  0
  1 25  1  0
  1 26  1  0
  3 27  1  0
  4 28  1  0
  6 29  1  0
  6 30  1  0
  7 31  1  0
  9 32  1  0
 10 33  1  0
 13 34  1  0
 13 35  1  0
 14 36  1  0
 14 37  1  0
 15 38  1  0
 15 39  1  0
 17 40  1  0
 17 41  1  0
 17 42  1  0
 18 43  1  0
 18 44  1  0
 19 45  1  0
 19 46  1  0
 20 47  1  0
 21 48  1  0
 22 49  1  0
 23 50  1  0
M  END
>  <meeko>  (1) 
{"is_sidechain": false}

>  <smiles>  (1) 
Cc1ccc(CNc2ccc(N3CCCN(C)CC3)cc2)cc1

>  <vina_score>  (1) 
-6.455

>  <job_id>  (1) 
d078588a25b207d2

$$$$
