
     RDKit          3D

 36 37  0  0  0  0  0  0  0  0999 V2000
   50.8660   81.0670   20.8920 C   0  0  0  0  0  0  0  0  0  0  0  0
   51.4380   80.5510   22.1100 N   0  0  0  0  0  0  0  0  0  0  0  0
   52.2940   81.3280   22.8640 C   0  0  0  0  0  0  0  0  0  0  0  0
   52.5600   82.4960   22.5990 O   0  0  0  0  0  0  0  0  0  0  0  0
   52.9370   80.6610   24.0290 C   0  0  0  0  0  0  0  0  0  0  0  0
   53.1640   81.4100   25.1870 C   0  0  0  0  0  0  0  0  0  0  0  0
   53.7670   80.8200   26.3030 C   0  0  0  0  0  0  0  0  0  0  0  0
   54.1460   79.4670   26.2920 C   0  0  0  0  0  0  0  0  0  0  0  0
   54.7790   78.8450   27.4680 C   0  0  0  0  0  0  0  0  0  0  0  0
   54.1710   77.7680   28.1340 C   0  0  0  0  0  0  0  0  0  0  0  0
   54.7640   77.1830   29.2560 C   0  0  0  0  0  0  0  0  0  0  0  0
   55.9860   77.6590   29.7300 C   0  0  0  0  0  0  0  0  0  0  0  0
   56.6220   78.7170   29.0730 C   0  0  0  0  0  0  0  0  0  0  0  0
   57.9280   79.2640   29.5370 C   0  0  0  0  0  0  0  0  0  0  0  0
   58.9140   79.2010   28.8130 O   0  0  0  0  0  0  0  0  0  0  0  0
   57.9540   79.7900   30.8140 N   0  0  0  0  0  0  0  0  0  0  0  0
   59.1980   80.2320   31.3940 C   0  0  0  0  0  0  0  0  0  0  0  0
   56.0110   79.3120   27.9590 C   0  0  0  0  0  0  0  0  0  0  0  0
   53.8960   78.7230   25.1250 C   0  0  0  0  0  0  0  0  0  0  0  0
   53.2950   79.3090   24.0050 C   0  0  0  0  0  0  0  0  0  0  0  0
   50.0697   81.7854   21.1365 H   0  0  0  0  0  0  0  0  0  0  0  0
   51.6475   81.5716   20.3049 H   0  0  0  0  0  0  0  0  0  0  0  0
   50.4443   80.2378   20.3049 H   0  0  0  0  0  0  0  0  0  0  0  0
   51.4760   79.5460   22.2210 H   0  0  0  0  0  0  0  0  0  0  0  0
   52.8671   82.4686   25.2210 H   0  0  0  0  0  0  0  0  0  0  0  0
   53.9474   81.4251   27.2037 H   0  0  0  0  0  0  0  0  0  0  0  0
   53.2107   77.3780   27.7657 H   0  0  0  0  0  0  0  0  0  0  0  0
   54.2659   76.3454   29.7663 H   0  0  0  0  0  0  0  0  0  0  0  0
   56.4483   77.2035   30.6182 H   0  0  0  0  0  0  0  0  0  0  0  0
   57.1950   79.5720   31.4440 H   0  0  0  0  0  0  0  0  0  0  0  0
   59.1213   80.2047   32.4910 H   0  0  0  0  0  0  0  0  0  0  0  0
   60.0116   79.5679   31.0667 H   0  0  0  0  0  0  0  0  0  0  0  0
   59.4102   81.2605   31.0667 H   0  0  0  0  0  0  0  0  0  0  0  0
   56.5048   80.1592   27.4606 H   0  0  0  0  0  0  0  0  0  0  0  0
   54.1782   77.6603   25.0918 H   0  0  0  0  0  0  0  0  0  0  0  0
   53.1040   78.7058   23.1051 H   0  0  0  0  0  0  0  0  0  0  0  0
  1  2  1  0
  2  3  1  0
  3  4  2  0
  3  5  1  0
  5  6  1  0
  6  7  2  0
  7  8  1  0
  8  9  1  0
  9 10  2  0
 10 11  1  0
 11 12  2  0
 12 13  1  0
 13 14  1  0
 14 15  2  0
 14 16  1  0
 16 17  1  0
 13 18  2  0
  8 19  2  0
 19 20  1  0
 20  5  2  0
 18  9  1  0
  1 21  1  0
  1 22  1  0
  1 23  1  0
  2 24  1  0
  6 25  1  0
  7 26  1  0
 10 27  1  0
 11 28  1  0
 12 29  1  0
 16 30  1  0
 17 31  1  0
 17 32  1  0
 17 33  1  0
 18 34  1  0
 19 35  1  0
 20 36  1  0
M  END
>  <meeko>  (1) 
{"is_sidechain": false}

>  <smiles>  (1) 
CNC(=O)c1ccc(-c2cccc(C(=O)NC)c2)cc1

>  <vina_score>  (1) 
-8.674

>  <job_id>  (1) 
d0941e4ceb4629f6

$$$$
