
     RDKit          3D

 42 44  0  0  0  0  0  0  0  0999 V2000
   58.3180   79.1000   28.0900 O   0  0  0  0  0  0  0  0  0  0  0  0
   57.9270   79.3960   29.2160 C   0  0  0  0  0  0  0  0  0  0  0  0
   56.7530   78.9830   29.8190 N   0  0  0  0  0  0  0  0  0  0  0  0
   55.7110   78.2300   29.2370 C   0  0  0  0  0  0  0  0  0  0  0  0
   54.8230   78.7320   28.2830 C   0  0  0  0  0  0  0  0  0  0  0  0
   53.8110   77.9200   27.7610 C   0  0  0  0  0  0  0  0  0  0  0  0
   53.6750   76.6020   28.1900 C   0  0  0  0  0  0  0  0  0  0  0  0
   54.5510   76.0940   29.1450 C   0  0  0  0  0  0  0  0  0  0  0  0
   55.5630   76.9050   29.6660 C   0  0  0  0  0  0  0  0  0  0  0  0
   58.8290   80.2360   30.0550 C   0  0  0  0  0  0  0  0  0  0  0  0
   58.8420   80.1390   31.4480 C   0  0  0  0  0  0  0  0  0  0  0  0
   59.7190   80.9330   32.2010 C   0  0  0  0  0  0  0  0  0  0  0  0
   60.5950   81.8610   31.6080 C   0  0  0  0  0  0  0  0  0  0  0  0
   61.4670   82.6120   32.3970 N   0  0  0  0  0  0  0  0  0  0  0  0
   61.8930   82.1260   33.7200 C   0  0  0  0  0  0  0  0  0  0  0  0
   63.1870   81.3180   33.6170 C   0  0  0  0  0  0  0  0  0  0  0  0
   64.2790   82.1070   32.8950 C   0  0  0  0  0  0  0  0  0  0  0  0
   63.7790   82.6350   31.5520 C   0  0  0  0  0  0  0  0  0  0  0  0
   62.4850   83.4340   31.7200 C   0  0  0  0  0  0  0  0  0  0  0  0
   60.5590   81.9410   30.2080 C   0  0  0  0  0  0  0  0  0  0  0  0
   59.6800   81.1630   29.4450 C   0  0  0  0  0  0  0  0  0  0  0  0
   59.7120   81.3670   28.0890 O   0  0  0  0  0  0  0  0  0  0  0  0
   56.6550   79.1600   30.8110 H   0  0  0  0  0  0  0  0  0  0  0  0
   54.9202   79.7726   27.9400 H   0  0  0  0  0  0  0  0  0  0  0  0
   53.1189   78.3244   27.0077 H   0  0  0  0  0  0  0  0  0  0  0  0
   52.8791   75.9655   27.7761 H   0  0  0  0  0  0  0  0  0  0  0  0
   54.4468   75.0546   29.4895 H   0  0  0  0  0  0  0  0  0  0  0  0
   56.2511   76.4980   30.4216 H   0  0  0  0  0  0  0  0  0  0  0  0
   58.1629   79.4383   31.9557 H   0  0  0  0  0  0  0  0  0  0  0  0
   59.7223   80.8264   33.2958 H   0  0  0  0  0  0  0  0  0  0  0  0
   62.0589   82.9877   34.3833 H   0  0  0  0  0  0  0  0  0  0  0  0
   61.1044   81.4743   34.1243 H   0  0  0  0  0  0  0  0  0  0  0  0
   63.5354   81.0689   34.6302 H   0  0  0  0  0  0  0  0  0  0  0  0
   62.9805   80.4042   33.0406 H   0  0  0  0  0  0  0  0  0  0  0  0
   64.5840   82.9564   33.5239 H   0  0  0  0  0  0  0  0  0  0  0  0
   65.1313   81.4363   32.7113 H   0  0  0  0  0  0  0  0  0  0  0  0
   64.5490   83.2867   31.1133 H   0  0  0  0  0  0  0  0  0  0  0  0
   63.5764   81.7774   30.8936 H   0  0  0  0  0  0  0  0  0  0  0  0
   62.6873   84.3318   32.3225 H   0  0  0  0  0  0  0  0  0  0  0  0
   62.1106   83.7259   30.7277 H   0  0  0  0  0  0  0  0  0  0  0  0
   61.2410   82.6350   29.6949 H   0  0  0  0  0  0  0  0  0  0  0  0
   60.2710   80.6600   27.6940 H   0  0  0  0  0  0  0  0  0  0  0  0
  1  2  2  0
  2  3  1  0
  3  4  1  0
  4  5  2  0
  5  6  1  0
  6  7  2  0
  7  8  1  0
  8  9  2  0
  2 10  1  0
 10 11  1  0
 11 12  2  0
 12 13  1  0
 13 14  1  0
 14 15  1  0
 15 16  1  0
 16 17  1  0
 17 18  1  0
 18 19  1  0
 13 20  2  0
 20 21  1  0
 21 22  1  0
  9  4  1  0
 21 10  2  0
 19 14  1  0
  3 23  1  0
  5 24  1  0
  6 25  1  0
  7 26  1  0
  8 27  1  0
  9 28  1  0
 11 29  1  0
 12 30  1  0
 15 31  1  0
 15 32  1  0
 16 33  1  0
 16 34  1  0
 17 35  1  0
 17 36  1  0
 18 37  1  0
 18 38  1  0
 19 39  1  0
 19 40  1  0
 20 41  1  0
 22 42  1  0
M  END
>  <meeko>  (1) 
{"is_sidechain": false}

>  <smiles>  (1) 
O=C(Nc1ccccc1)c1ccc(N2CCCCC2)cc1O

>  <vina_score>  (1) 
-8.098

>  <job_id>  (1) 
d0d3191adbf89d42

$$$$
