
     RDKit          3D

 64 68  0  0  0  0  0  0  0  0999 V2000
   61.8930   79.9170   38.7290 C   0  0  0  0  0  0  0  0  0  0  0  0
   62.3670   80.4850   37.4700 N   0  0  0  0  0  0  0  0  0  0  0  0
   61.9360   79.6820   36.3070 C   0  0  0  0  0  0  0  0  0  0  0  0
   60.6800   80.1930   35.5600 C   0  0  0  0  0  0  0  0  0  0  0  0
   60.8420   81.5940   35.1330 N   0  0  0  0  0  0  0  0  0  0  0  0
   60.2020   82.0840   34.0090 C   0  0  0  0  0  0  0  0  0  0  0  0
   58.9860   81.5520   33.5580 C   0  0  0  0  0  0  0  0  0  0  0  0
   58.3270   82.0510   32.4230 C   0  0  0  0  0  0  0  0  0  0  0  0
   58.8470   83.1280   31.7040 C   0  0  0  0  0  0  0  0  0  0  0  0
   58.1850   83.5680   30.5350 N   0  0  0  0  0  0  0  0  0  0  0  0
   58.1690   82.7280   29.4180 N   0  0  0  0  0  0  0  0  0  0  0  0
   59.6090   81.9410   29.2640 S   0  0  0  0  0  0  0  0  0  0  0  0
   59.2240   80.5920   28.3950 N   0  0  0  0  0  0  0  0  0  0  0  0
   58.5680   79.6390   29.1900 N   0  0  0  0  0  0  0  0  0  0  0  0
   57.2950   79.1930   28.7970 C   0  0  0  0  0  0  0  0  0  0  0  0
   56.7890   78.0780   29.3660 N   0  0  0  0  0  0  0  0  0  0  0  0
   55.5630   77.6830   28.9730 C   0  0  0  0  0  0  0  0  0  0  0  0
   54.8280   78.3490   28.0260 C   0  0  0  0  0  0  0  0  0  0  0  0
   55.4400   79.4880   27.5190 C   0  0  0  0  0  0  0  0  0  0  0  0
   56.6540   79.9300   27.8790 N   0  0  0  0  0  0  0  0  0  0  0  0
   54.7160   80.2320   26.5070 C   0  0  0  0  0  0  0  0  0  0  0  0
   53.5640   79.7690   25.9020 C   0  0  0  0  0  0  0  0  0  0  0  0
   53.1780   80.7790   24.9880 C   0  0  0  0  0  0  0  0  0  0  0  0
   52.0260   80.7750   24.0750 C   0  0  0  0  0  0  0  0  0  0  0  0
   52.3480   80.5120   22.7730 N   0  0  0  0  0  0  0  0  0  0  0  0
   50.8670   80.9820   24.4230 O   0  0  0  0  0  0  0  0  0  0  0  0
   54.0410   81.8190   25.0340 N   0  0  0  0  0  0  0  0  0  0  0  0
   54.9650   81.4540   25.9560 N   0  0  0  0  0  0  0  0  0  0  0  0
   56.0530   82.3540   26.2540 C   0  0  0  0  0  0  0  0  0  0  0  0
   52.9930   78.4300   26.2200 C   0  0  0  0  0  0  0  0  0  0  0  0
   53.4240   77.9550   27.6320 C   0  0  0  0  0  0  0  0  0  0  0  0
   60.0760   83.6450   32.1160 C   0  0  0  0  0  0  0  0  0  0  0  0
   60.7290   83.1420   33.2530 C   0  0  0  0  0  0  0  0  0  0  0  0
   61.8280   82.3930   35.8800 C   0  0  0  0  0  0  0  0  0  0  0  0
   61.9340   81.8950   37.3390 C   0  0  0  0  0  0  0  0  0  0  0  0
   62.3469   80.4609   39.5705 H   0  0  0  0  0  0  0  0  0  0  0  0
   60.7980   80.0066   38.7824 H   0  0  0  0  0  0  0  0  0  0  0  0
   62.1771   78.8557   38.7824 H   0  0  0  0  0  0  0  0  0  0  0  0
   62.7683   79.6563   35.5882 H   0  0  0  0  0  0  0  0  0  0  0  0
   61.6613   78.6966   36.7113 H   0  0  0  0  0  0  0  0  0  0  0  0
   60.5113   79.5655   34.6725 H   0  0  0  0  0  0  0  0  0  0  0  0
   59.8221   80.1369   36.2462 H   0  0  0  0  0  0  0  0  0  0  0  0
   58.5332   80.7162   34.1115 H   0  0  0  0  0  0  0  0  0  0  0  0
   57.3857   81.5855   32.0953 H   0  0  0  0  0  0  0  0  0  0  0  0
   58.3710   84.5480   30.3260 H   0  0  0  0  0  0  0  0  0  0  0  0
   57.4050   82.0520   29.4850 H   0  0  0  0  0  0  0  0  0  0  0  0
   60.0730   80.1680   27.9980 H   0  0  0  0  0  0  0  0  0  0  0  0
   59.1140   78.8410   29.4950 H   0  0  0  0  0  0  0  0  0  0  0  0
   55.1303   76.7828   29.4338 H   0  0  0  0  0  0  0  0  0  0  0  0
   53.3170   80.3150   22.5490 H   0  0  0  0  0  0  0  0  0  0  0  0
   51.6230   80.4520   22.0760 H   0  0  0  0  0  0  0  0  0  0  0  0
   56.1644   82.4462   27.3445 H   0  0  0  0  0  0  0  0  0  0  0  0
   56.9844   81.9589   25.8223 H   0  0  0  0  0  0  0  0  0  0  0  0
   55.8395   83.3430   25.8223 H   0  0  0  0  0  0  0  0  0  0  0  0
   51.8953   78.4902   26.1817 H   0  0  0  0  0  0  0  0  0  0  0  0
   53.3690   77.7075   25.4806 H   0  0  0  0  0  0  0  0  0  0  0  0
   52.7277   78.3860   28.3665 H   0  0  0  0  0  0  0  0  0  0  0  0
   53.4027   76.8554   27.6113 H   0  0  0  0  0  0  0  0  0  0  0  0
   60.5407   84.4595   31.5410 H   0  0  0  0  0  0  0  0  0  0  0  0
   61.6844   83.5920   33.5608 H   0  0  0  0  0  0  0  0  0  0  0  0
   62.8106   82.3020   35.3941 H   0  0  0  0  0  0  0  0  0  0  0  0
   61.5037   83.4441   35.8854 H   0  0  0  0  0  0  0  0  0  0  0  0
   62.6605   82.5294   37.8680 H   0  0  0  0  0  0  0  0  0  0  0  0
   60.9228   81.9559   37.7676 H   0  0  0  0  0  0  0  0  0  0  0  0
  1  2  1  0
  2  3  1  0
  3  4  1  0
  4  5  1  0
  5  6  1  0
  6  7  1  0
  7  8  2  0
  8  9  1  0
  9 10  1  0
 10 11  1  0
 11 12  1  0
 12 13  1  0
 13 14  1  0
 14 15  1  0
 15 16  2  0
 16 17  1  0
 17 18  2  0
 18 19  1  0
 19 20  2  0
 19 21  1  0
 21 22  2  0
 22 23  1  0
 23 24  1  0
 24 25  1  0
 24 26  2  0
 23 27  2  0
 27 28  1  0
 28 29  1  0
 22 30  1  0
 30 31  1  0
  9 32  2  0
 32 33  1  0
  5 34  1  0
 34 35  1  0
 35  2  1  0
 33  6  2  0
 20 15  1  0
 28 21  1  0
 31 18  1  0
  1 36  1  0
  1 37  1  0
  1 38  1  0
  3 39  1  0
  3 40  1  0
  4 41  1  0
  4 42  1  0
  7 43  1  0
  8 44  1  0
 10 45  1  0
 11 46  1  0
 13 47  1  0
 14 48  1  0
 17 49  1  0
 25 50  1  0
 25 51  1  0
 29 52  1  0
 29 53  1  0
 29 54  1  0
 30 55  1  0
 30 56  1  0
 31 57  1  0
 31 58  1  0
 32 59  1  0
 33 60  1  0
 34 61  1  0
 34 62  1  0
 35 63  1  0
 35 64  1  0
M  END
>  <meeko>  (1) 
{"is_sidechain": false}

>  <smiles>  (1) 
CN1CCN(c2ccc(NNSNNc3ncc4c(n3)-c3c(c(C(N)=O)nn3C)CC4)cc2)CC1

>  <vina_score>  (1) 
-8.770

>  <job_id>  (1) 
d0dd269cca6efb21

$$$$
