
     RDKit          3D

 41 42  0  0  0  0  0  0  0  0999 V2000
   60.0620   80.6070   35.1300 C   0  0  0  0  0  0  0  0  0  0  0  0
   60.0200   80.6430   33.6900 N   0  0  0  0  0  0  0  0  0  0  0  0
   58.8580   80.9990   33.0340 C   0  0  0  0  0  0  0  0  0  0  0  0
   57.8390   81.3570   33.6130 O   0  0  0  0  0  0  0  0  0  0  0  0
   58.8760   80.8810   31.5500 C   0  0  0  0  0  0  0  0  0  0  0  0
   59.6270   81.8040   30.8190 C   0  0  0  0  0  0  0  0  0  0  0  0
   59.6670   81.7200   29.4300 C   0  0  0  0  0  0  0  0  0  0  0  0
   58.9650   80.7070   28.7700 C   0  0  0  0  0  0  0  0  0  0  0  0
   58.2150   79.7630   29.4810 C   0  0  0  0  0  0  0  0  0  0  0  0
   57.5310   78.7040   28.8580 N   0  0  0  0  0  0  0  0  0  0  0  0
   56.1670   78.4910   28.5750 C   0  0  0  0  0  0  0  0  0  0  0  0
   55.5450   79.3460   27.6510 C   0  0  0  0  0  0  0  0  0  0  0  0
   54.2050   79.1570   27.2820 C   0  0  0  0  0  0  0  0  0  0  0  0
   53.5920   80.1120   26.3310 C   0  0  0  0  0  0  0  0  0  0  0  0
   53.3450   81.2410   26.7510 O   0  0  0  0  0  0  0  0  0  0  0  0
   53.3100   79.6940   25.0330 N   0  0  0  0  0  0  0  0  0  0  0  0
   53.9460   78.5630   24.3710 C   0  0  0  0  0  0  0  0  0  0  0  0
   52.5630   80.5960   24.1720 C   0  0  0  0  0  0  0  0  0  0  0  0
   53.4500   78.1320   27.8570 C   0  0  0  0  0  0  0  0  0  0  0  0
   54.0540   77.2720   28.7700 C   0  0  0  0  0  0  0  0  0  0  0  0
   55.3960   77.4480   29.1140 C   0  0  0  0  0  0  0  0  0  0  0  0
   55.9100   76.6160   30.0310 F   0  0  0  0  0  0  0  0  0  0  0  0
   58.1870   79.8570   30.8810 C   0  0  0  0  0  0  0  0  0  0  0  0
   59.2858   81.2722   35.5362 H   0  0  0  0  0  0  0  0  0  0  0  0
   59.8817   79.5787   35.4765 H   0  0  0  0  0  0  0  0  0  0  0  0
   61.0506   80.9426   35.4765 H   0  0  0  0  0  0  0  0  0  0  0  0
   60.7120   80.1050   33.1870 H   0  0  0  0  0  0  0  0  0  0  0  0
   60.1857   82.5957   31.3396 H   0  0  0  0  0  0  0  0  0  0  0  0
   60.2511   82.4509   28.8516 H   0  0  0  0  0  0  0  0  0  0  0  0
   59.0028   80.6508   27.6721 H   0  0  0  0  0  0  0  0  0  0  0  0
   58.1310   77.9470   28.5470 H   0  0  0  0  0  0  0  0  0  0  0  0
   56.1168   80.1759   27.2102 H   0  0  0  0  0  0  0  0  0  0  0  0
   54.3371   77.8675   25.1282 H   0  0  0  0  0  0  0  0  0  0  0  0
   53.2077   78.0435   23.7425 H   0  0  0  0  0  0  0  0  0  0  0  0
   54.7734   78.9239   23.7425 H   0  0  0  0  0  0  0  0  0  0  0  0
   51.9828   81.2966   24.7904 H   0  0  0  0  0  0  0  0  0  0  0  0
   53.2622   81.1598   23.5370 H   0  0  0  0  0  0  0  0  0  0  0  0
   51.8787   80.0141   23.5370 H   0  0  0  0  0  0  0  0  0  0  0  0
   52.3900   78.0058   27.5913 H   0  0  0  0  0  0  0  0  0  0  0  0
   53.4738   76.4533   29.2207 H   0  0  0  0  0  0  0  0  0  0  0  0
   57.6169   79.1176   31.4626 H   0  0  0  0  0  0  0  0  0  0  0  0
  1  2  1  0
  2  3  1  0
  3  4  2  0
  3  5  1  0
  5  6  1  0
  6  7  2  0
  7  8  1  0
  8  9  2  0
  9 10  1  0
 10 11  1  0
 11 12  1  0
 12 13  2  0
 13 14  1  0
 14 15  2  0
 14 16  1  0
 16 17  1  0
 16 18  1  0
 13 19  1  0
 19 20  2  0
 20 21  1  0
 21 22  1  0
  9 23  1  0
 23  5  2  0
 21 11  2  0
  1 24  1  0
  1 25  1  0
  1 26  1  0
  2 27  1  0
  6 28  1  0
  7 29  1  0
  8 30  1  0
 10 31  1  0
 12 32  1  0
 17 33  1  0
 17 34  1  0
 17 35  1  0
 18 36  1  0
 18 37  1  0
 18 38  1  0
 19 39  1  0
 20 40  1  0
 23 41  1  0
M  END
>  <meeko>  (1) 
{"is_sidechain": false}

>  <smiles>  (1) 
CNC(=O)c1cccc(Nc2cc(C(=O)N(C)C)ccc2F)c1

>  <vina_score>  (1) 
-8.709

>  <job_id>  (1) 
d0ec448c42f143a4

$$$$
