
     RDKit          3D

 44 46  0  0  0  0  0  0  0  0999 V2000
   59.7440   80.6930   29.4230 O   0  0  0  0  0  0  0  0  0  0  0  0
   59.0470   80.1890   30.2910 C   0  0  0  0  0  0  0  0  0  0  0  0
   57.9080   79.4660   30.0460 N   0  0  0  0  0  0  0  0  0  0  0  0
   57.4930   79.0980   28.7010 C   0  0  0  0  0  0  0  0  0  0  0  0
   56.7270   80.2570   28.0530 C   0  0  0  0  0  0  0  0  0  0  0  0
   55.8170   79.7670   26.9320 C   0  0  0  0  0  0  0  0  0  0  0  0
   54.8380   78.7950   27.4260 N   0  0  0  0  0  0  0  0  0  0  0  0
   53.5130   78.7280   26.9910 C   0  0  0  0  0  0  0  0  0  0  0  0
   52.6300   78.1430   27.6140 O   0  0  0  0  0  0  0  0  0  0  0  0
   53.1410   79.3870   25.7180 C   0  0  0  0  0  0  0  0  0  0  0  0
   53.3100   78.7300   24.4930 C   0  0  0  0  0  0  0  0  0  0  0  0
   52.9340   79.3660   23.3100 C   0  0  0  0  0  0  0  0  0  0  0  0
   52.3770   80.6460   23.3520 C   0  0  0  0  0  0  0  0  0  0  0  0
   52.1850   81.2890   24.5750 C   0  0  0  0  0  0  0  0  0  0  0  0
   52.5600   80.6570   25.7620 C   0  0  0  0  0  0  0  0  0  0  0  0
   55.1970   78.0240   28.6150 C   0  0  0  0  0  0  0  0  0  0  0  0
   56.6980   77.7810   28.6980 C   0  0  0  0  0  0  0  0  0  0  0  0
   59.2670   80.2310   31.6570 O   0  0  0  0  0  0  0  0  0  0  0  0
   59.5370   81.5130   32.1420 C   0  0  0  0  0  0  0  0  0  0  0  0
   58.5590   82.4960   32.0100 C   0  0  0  0  0  0  0  0  0  0  0  0
   58.7950   83.7650   32.5370 C   0  0  0  0  0  0  0  0  0  0  0  0
   59.9950   84.0340   33.2000 C   0  0  0  0  0  0  0  0  0  0  0  0
   60.9600   83.0350   33.3410 C   0  0  0  0  0  0  0  0  0  0  0  0
   60.7310   81.7630   32.8170 C   0  0  0  0  0  0  0  0  0  0  0  0
   57.5210   78.9880   30.8490 H   0  0  0  0  0  0  0  0  0  0  0  0
   58.3879   78.9109   28.0893 H   0  0  0  0  0  0  0  0  0  0  0  0
   56.1142   80.7536   28.8197 H   0  0  0  0  0  0  0  0  0  0  0  0
   57.4586   80.9570   27.6230 H   0  0  0  0  0  0  0  0  0  0  0  0
   55.2824   80.6272   26.5029 H   0  0  0  0  0  0  0  0  0  0  0  0
   56.4395   79.2754   26.1699 H   0  0  0  0  0  0  0  0  0  0  0  0
   53.7374   77.7168   24.4638 H   0  0  0  0  0  0  0  0  0  0  0  0
   53.0762   78.8594   22.3440 H   0  0  0  0  0  0  0  0  0  0  0  0
   52.0886   81.1490   22.4172 H   0  0  0  0  0  0  0  0  0  0  0  0
   51.7382   82.2938   24.6041 H   0  0  0  0  0  0  0  0  0  0  0  0
   52.3987   81.1570   26.7284 H   0  0  0  0  0  0  0  0  0  0  0  0
   54.8758   78.5781   29.5093 H   0  0  0  0  0  0  0  0  0  0  0  0
   54.6948   77.0472   28.5543 H   0  0  0  0  0  0  0  0  0  0  0  0
   56.9184   77.2304   29.6244 H   0  0  0  0  0  0  0  0  0  0  0  0
   56.9993   77.2029   27.8119 H   0  0  0  0  0  0  0  0  0  0  0  0
   57.6121   82.2738   31.4963 H   0  0  0  0  0  0  0  0  0  0  0  0
   58.0364   84.5544   32.4308 H   0  0  0  0  0  0  0  0  0  0  0  0
   60.1802   85.0368   33.6125 H   0  0  0  0  0  0  0  0  0  0  0  0
   61.9021   83.2514   33.8660 H   0  0  0  0  0  0  0  0  0  0  0  0
   61.4820   80.9680   32.9346 H   0  0  0  0  0  0  0  0  0  0  0  0
  1  2  2  0
  2  3  1  0
  3  4  1  0
  4  5  1  0
  5  6  1  0
  6  7  1  0
  7  8  1  0
  8  9  2  0
  8 10  1  0
 10 11  2  0
 11 12  1  0
 12 13  2  0
 13 14  1  0
 14 15  2  0
  7 16  1  0
 16 17  1  0
  2 18  1  0
 18 19  1  0
 19 20  2  0
 20 21  1  0
 21 22  2  0
 22 23  1  0
 23 24  2  0
 17  4  1  0
 24 19  1  0
 15 10  1  0
  3 25  1  0
  4 26  1  0
  5 27  1  0
  5 28  1  0
  6 29  1  0
  6 30  1  0
 11 31  1  0
 12 32  1  0
 13 33  1  0
 14 34  1  0
 15 35  1  0
 16 36  1  0
 16 37  1  0
 17 38  1  0
 17 39  1  0
 20 40  1  0
 21 41  1  0
 22 42  1  0
 23 43  1  0
 24 44  1  0
M  END
>  <meeko>  (1) 
{"is_sidechain": false}

>  <smiles>  (1) 
O=C(NC1CCN(C(=O)c2ccccc2)CC1)Oc1ccccc1

>  <vina_score>  (1) 
-7.493

>  <job_id>  (1) 
d23e428f6319903a

$$$$
