
     RDKit          3D

 48 50  0  0  0  0  0  0  0  0999 V2000
   62.5350   80.6620   34.0200 C   0  0  0  0  0  0  0  0  0  0  0  0
   61.8570   80.2860   35.2220 O   0  0  0  0  0  0  0  0  0  0  0  0
   60.5000   80.3620   35.1360 C   0  0  0  0  0  0  0  0  0  0  0  0
   59.7490   80.2340   36.0880 O   0  0  0  0  0  0  0  0  0  0  0  0
   60.1750   80.5680   33.8250 N   0  0  0  0  0  0  0  0  0  0  0  0
   58.9130   80.8370   33.3420 C   0  0  0  0  0  0  0  0  0  0  0  0
   57.9030   80.9820   34.0190 O   0  0  0  0  0  0  0  0  0  0  0  0
   58.8180   81.0100   31.8630 C   0  0  0  0  0  0  0  0  0  0  0  0
   58.9670   82.2980   31.3340 C   0  0  0  0  0  0  0  0  0  0  0  0
   58.8860   82.5060   29.9570 C   0  0  0  0  0  0  0  0  0  0  0  0
   58.6430   81.4320   29.1000 C   0  0  0  0  0  0  0  0  0  0  0  0
   58.4680   80.1390   29.6120 C   0  0  0  0  0  0  0  0  0  0  0  0
   58.1920   78.9750   28.6830 C   0  0  0  0  0  0  0  0  0  0  0  0
   56.7210   78.7000   28.4720 C   0  0  0  0  0  0  0  0  0  0  0  0
   56.0260   79.3340   27.4420 C   0  0  0  0  0  0  0  0  0  0  0  0
   54.6580   79.0870   27.2730 C   0  0  0  0  0  0  0  0  0  0  0  0
   53.8940   79.7450   26.2040 C   0  0  0  0  0  0  0  0  0  0  0  0
   53.3100   81.0070   26.4040 C   0  0  0  0  0  0  0  0  0  0  0  0
   52.5790   81.6390   25.3900 C   0  0  0  0  0  0  0  0  0  0  0  0
   52.4170   81.0200   24.1520 C   0  0  0  0  0  0  0  0  0  0  0  0
   51.7310   81.5240   23.0830 O   0  0  0  0  0  0  0  0  0  0  0  0
   52.4710   81.7320   21.8860 C   0  0  0  0  0  0  0  0  0  0  0  0
   52.9930   79.7670   23.9410 C   0  0  0  0  0  0  0  0  0  0  0  0
   53.7220   79.1350   24.9530 C   0  0  0  0  0  0  0  0  0  0  0  0
   54.0430   78.1980   28.1600 C   0  0  0  0  0  0  0  0  0  0  0  0
   54.8040   77.6140   29.1600 C   0  0  0  0  0  0  0  0  0  0  0  0
   56.1200   77.8490   29.3390 N   0  0  0  0  0  0  0  0  0  0  0  0
   58.5600   79.9360   31.0010 C   0  0  0  0  0  0  0  0  0  0  0  0
   63.4710   81.1811   34.2740 H   0  0  0  0  0  0  0  0  0  0  0  0
   62.7633   79.7616   33.4308 H   0  0  0  0  0  0  0  0  0  0  0  0
   61.8921   81.3325   33.4308 H   0  0  0  0  0  0  0  0  0  0  0  0
   60.9730   80.6260   33.2150 H   0  0  0  0  0  0  0  0  0  0  0  0
   59.1486   83.1490   32.0069 H   0  0  0  0  0  0  0  0  0  0  0  0
   59.0139   83.5183   29.5461 H   0  0  0  0  0  0  0  0  0  0  0  0
   58.5884   81.6013   28.0145 H   0  0  0  0  0  0  0  0  0  0  0  0
   58.6475   79.1950   27.7062 H   0  0  0  0  0  0  0  0  0  0  0  0
   58.6215   78.0790   29.1549 H   0  0  0  0  0  0  0  0  0  0  0  0
   56.5503   80.0250   26.7655 H   0  0  0  0  0  0  0  0  0  0  0  0
   53.4291   81.5085   27.3757 H   0  0  0  0  0  0  0  0  0  0  0  0
   52.1313   82.6272   25.5715 H   0  0  0  0  0  0  0  0  0  0  0  0
   53.5018   82.0217   22.1379 H   0  0  0  0  0  0  0  0  0  0  0  0
   52.4847   80.8029   21.2973 H   0  0  0  0  0  0  0  0  0  0  0  0
   51.9987   82.5322   21.2973 H   0  0  0  0  0  0  0  0  0  0  0  0
   52.8722   79.2704   22.9670 H   0  0  0  0  0  0  0  0  0  0  0  0
   54.1664   78.1464   24.7654 H   0  0  0  0  0  0  0  0  0  0  0  0
   52.9719   77.9659   28.0654 H   0  0  0  0  0  0  0  0  0  0  0  0
   54.3049   76.9169   29.8492 H   0  0  0  0  0  0  0  0  0  0  0  0
   58.4282   78.9250   31.4140 H   0  0  0  0  0  0  0  0  0  0  0  0
  1  2  1  0
  2  3  1  0
  3  4  2  0
  3  5  1  0
  5  6  1  0
  6  7  2  0
  6  8  1  0
  8  9  1  0
  9 10  2  0
 10 11  1  0
 11 12  2  0
 12 13  1  0
 13 14  1  0
 14 15  2  0
 15 16  1  0
 16 17  1  0
 17 18  1  0
 18 19  2  0
 19 20  1  0
 20 21  1  0
 21 22  1  0
 20 23  2  0
 23 24  1  0
 16 25  2  0
 25 26  1  0
 26 27  2  0
 12 28  1  0
 28  8  2  0
 27 14  1  0
 24 17  2  0
  1 29  1  0
  1 30  1  0
  1 31  1  0
  5 32  1  0
  9 33  1  0
 10 34  1  0
 11 35  1  0
 13 36  1  0
 13 37  1  0
 15 38  1  0
 18 39  1  0
 19 40  1  0
 22 41  1  0
 22 42  1  0
 22 43  1  0
 23 44  1  0
 24 45  1  0
 25 46  1  0
 26 47  1  0
 28 48  1  0
M  END
>  <meeko>  (1) 
{"is_sidechain": false}

>  <smiles>  (1) 
COC(=O)NC(=O)c1cccc(Cc2cc(-c3ccc(OC)cc3)ccn2)c1

>  <vina_score>  (1) 
-9.150

>  <job_id>  (1) 
d26ca2c96fba4be2

$$$$
