
     RDKit          3D

 55 57  0  0  0  0  0  0  0  0999 V2000
   53.0060   78.3570   24.7540 N   0  0  0  0  0  0  0  0  0  0  0  0
   53.6850   78.2060   26.0410 C   0  0  2  0  0  0  0  0  0  0  0  0
   52.9350   77.2190   26.9310 C   0  0  0  0  0  0  0  0  0  0  0  0
   53.6750   76.9710   28.2510 C   0  0  0  0  0  0  0  0  0  0  0  0
   54.4950   78.1730   28.7610 C   0  0  1  0  0  0  0  0  0  0  0  0
   55.8910   78.0710   28.3160 N   0  0  0  0  0  0  0  0  0  0  0  0
   56.8860   78.9190   28.8120 C   0  0  0  0  0  0  0  0  0  0  0  0
   57.0600   78.9870   30.2050 C   0  0  0  0  0  0  0  0  0  0  0  0
   57.9870   79.8570   30.7880 C   0  0  0  0  0  0  0  0  0  0  0  0
   58.7460   80.6920   29.9700 C   0  0  0  0  0  0  0  0  0  0  0  0
   59.9180   81.8130   30.6850 S   0  0  0  0  0  0  0  0  0  0  0  0
   61.1280   81.7500   29.8950 O   0  0  0  0  0  0  0  0  0  0  0  0
   59.2580   83.0670   30.9720 O   0  0  0  0  0  0  0  0  0  0  0  0
   60.2730   81.0620   32.1390 N   0  0  0  0  0  0  0  0  0  0  0  0
   60.1540   81.7950   33.4050 C   0  0  2  0  0  0  0  0  0  0  0  0
   61.4200   82.6260   33.6590 C   0  0  0  0  0  0  0  0  0  0  0  0
   62.3970   81.9970   34.6590 C   0  0  0  0  0  0  0  0  0  0  0  0
   62.4320   80.4770   34.5270 C   0  0  1  0  0  0  0  0  0  0  0  0
   63.4350   79.9060   35.4200 N   0  0  0  0  0  0  0  0  0  0  0  0
   61.0580   79.8570   34.8250 C   0  0  0  0  0  0  0  0  0  0  0  0
   59.8810   80.7920   34.5260 C   0  0  0  0  0  0  0  0  0  0  0  0
   58.5610   80.6810   28.5890 C   0  0  0  0  0  0  0  0  0  0  0  0
   57.6280   79.8050   28.0210 C   0  0  0  0  0  0  0  0  0  0  0  0
   53.9000   79.4920   28.2510 C   0  0  0  0  0  0  0  0  0  0  0  0
   53.8070   79.5770   26.7220 C   0  0  0  0  0  0  0  0  0  0  0  0
   52.0330   78.6180   24.9110 H   0  0  0  0  0  0  0  0  0  0  0  0
   53.4270   79.1290   24.2380 H   0  0  0  0  0  0  0  0  0  0  0  0
   54.6947   77.8036   25.8717 H   0  0  0  0  0  0  0  0  0  0  0  0
   51.9372   77.6256   27.1525 H   0  0  0  0  0  0  0  0  0  0  0  0
   52.8600   76.2616   26.3945 H   0  0  0  0  0  0  0  0  0  0  0  0
   52.9307   76.7126   29.0186 H   0  0  0  0  0  0  0  0  0  0  0  0
   54.3942   76.1612   28.0586 H   0  0  0  0  0  0  0  0  0  0  0  0
   54.4599   78.1608   29.8604 H   0  0  0  0  0  0  0  0  0  0  0  0
   55.9890   77.9460   27.3110 H   0  0  0  0  0  0  0  0  0  0  0  0
   56.4515   78.3394   30.8533 H   0  0  0  0  0  0  0  0  0  0  0  0
   58.1156   79.8819   31.8802 H   0  0  0  0  0  0  0  0  0  0  0  0
   60.8850   80.2550   32.0530 H   0  0  0  0  0  0  0  0  0  0  0  0
   59.3144   82.5045   33.3633 H   0  0  0  0  0  0  0  0  0  0  0  0
   61.9443   82.7568   32.7009 H   0  0  0  0  0  0  0  0  0  0  0  0
   61.0889   83.5785   34.0985 H   0  0  0  0  0  0  0  0  0  0  0  0
   63.4052   82.3952   34.4722 H   0  0  0  0  0  0  0  0  0  0  0  0
   62.0589   82.2472   35.6754 H   0  0  0  0  0  0  0  0  0  0  0  0
   62.7000   80.2423   33.4863 H   0  0  0  0  0  0  0  0  0  0  0  0
   64.1610   79.4400   34.8770 H   0  0  0  0  0  0  0  0  0  0  0  0
   63.8990   80.6480   35.9430 H   0  0  0  0  0  0  0  0  0  0  0  0
   60.9458   78.9507   34.2117 H   0  0  0  0  0  0  0  0  0  0  0  0
   61.0304   79.6409   35.9032 H   0  0  0  0  0  0  0  0  0  0  0  0
   59.0155   80.1775   34.2373 H   0  0  0  0  0  0  0  0  0  0  0  0
   59.6987   81.3770   35.4396 H   0  0  0  0  0  0  0  0  0  0  0  0
   59.1453   81.3575   27.9479 H   0  0  0  0  0  0  0  0  0  0  0  0
   57.4748   79.8129   26.9318 H   0  0  0  0  0  0  0  0  0  0  0  0
   52.8874   79.5998   28.6669 H   0  0  0  0  0  0  0  0  0  0  0  0
   54.5758   80.2964   28.5769 H   0  0  0  0  0  0  0  0  0  0  0  0
   52.9230   80.1767   26.4593 H   0  0  0  0  0  0  0  0  0  0  0  0
   54.7413   80.0348   26.3649 H   0  0  0  0  0  0  0  0  0  0  0  0
  1  2  1  0
  2  3  1  0
  3  4  1  0
  4  5  1  0
  5  6  1  0
  6  7  1  0
  7  8  1  0
  8  9  2  0
  9 10  1  0
 10 11  1  0
 11 12  2  0
 11 13  2  0
 11 14  1  0
 14 15  1  0
 15 16  1  0
 16 17  1  0
 17 18  1  0
 18 19  1  0
 18 20  1  0
 20 21  1  0
 10 22  2  0
 22 23  1  0
  5 24  1  0
 24 25  1  0
 25  2  1  0
 23  7  2  0
 21 15  1  0
  1 26  1  0
  1 27  1  0
  2 28  1  1
  3 29  1  0
  3 30  1  0
  4 31  1  0
  4 32  1  0
  5 33  1  6
  6 34  1  0
  8 35  1  0
  9 36  1  0
 14 37  1  0
 15 38  1  1
 16 39  1  0
 16 40  1  0
 17 41  1  0
 17 42  1  0
 18 43  1  1
 19 44  1  0
 19 45  1  0
 20 46  1  0
 20 47  1  0
 21 48  1  0
 21 49  1  0
 22 50  1  0
 23 51  1  0
 24 52  1  0
 24 53  1  0
 25 54  1  0
 25 55  1  0
M  END
>  <meeko>  (1) 
{"is_sidechain": false}

>  <smiles>  (1) 
N[C@H]1CC[C@H](Nc2ccc(S(=O)(=O)N[C@H]3CC[C@H](N)CC3)cc2)CC1

>  <vina_score>  (1) 
-7.252

>  <job_id>  (1) 
d2c0faee616b7a10

$$$$
