
     RDKit          3D

 58 61  0  0  0  0  0  0  0  0999 V2000
   51.8320   75.3570   26.7860 C   0  0  0  0  0  0  0  0  0  0  0  0
   52.8850   76.0740   27.5770 C   0  0  0  0  0  0  0  0  0  0  0  0
   53.7780   75.3620   28.3800 C   0  0  0  0  0  0  0  0  0  0  0  0
   54.7420   76.0340   29.1450 C   0  0  0  0  0  0  0  0  0  0  0  0
   54.8340   77.4270   29.1380 C   0  0  0  0  0  0  0  0  0  0  0  0
   55.7710   78.1560   29.8780 N   0  0  0  0  0  0  0  0  0  0  0  0
   56.8440   78.9820   29.5490 C   0  0  0  0  0  0  0  0  0  0  0  0
   57.1370   79.2760   28.2670 N   0  0  0  0  0  0  0  0  0  0  0  0
   58.1850   80.0830   27.9860 C   0  0  0  0  0  0  0  0  0  0  0  0
   58.9440   80.6030   29.0240 C   0  0  0  0  0  0  0  0  0  0  0  0
   60.0590   81.4600   29.1550 C   0  0  0  0  0  0  0  0  0  0  0  0
   60.3080   81.6460   30.5080 C   0  0  0  0  0  0  0  0  0  0  0  0
   61.3150   82.5180   31.0760 C   0  0  0  0  0  0  0  0  0  0  0  0
   61.0340   83.4930   31.7600 O   0  0  0  0  0  0  0  0  0  0  0  0
   62.6030   82.0960   30.8280 N   0  0  0  0  0  0  0  0  0  0  0  0
   63.8130   82.7250   31.3750 C   0  0  0  0  0  0  0  0  0  0  0  0
   65.0130   81.8280   31.0200 C   0  0  0  0  0  0  0  0  0  0  0  0
   64.0530   84.1100   30.7520 C   0  0  0  0  0  0  0  0  0  0  0  0
   63.7230   82.8410   32.9050 C   0  0  0  0  0  0  0  0  0  0  0  0
   59.4430   80.8040   31.1940 N   0  0  0  0  0  0  0  0  0  0  0  0
   59.4790   80.5210   32.6200 C   0  0  0  0  0  0  0  0  0  0  0  0
   59.2010   81.7340   33.5260 C   0  0  0  0  0  0  0  0  0  0  0  0
   60.0360   81.4680   34.7700 C   0  0  0  0  0  0  0  0  0  0  0  0
   61.3040   80.8440   34.2120 C   0  0  0  0  0  0  0  0  0  0  0  0
   60.8100   79.9170   33.1070 C   0  0  0  0  0  0  0  0  0  0  0  0
   58.5630   80.2320   30.3000 C   0  0  0  0  0  0  0  0  0  0  0  0
   57.5280   79.4360   30.6140 N   0  0  0  0  0  0  0  0  0  0  0  0
   53.9190   78.1310   28.3380 C   0  0  0  0  0  0  0  0  0  0  0  0
   52.9540   77.4680   27.5720 C   0  0  0  0  0  0  0  0  0  0  0  0
   51.1223   74.8738   27.4736 H   0  0  0  0  0  0  0  0  0  0  0  0
   51.2951   76.0780   26.1520 H   0  0  0  0  0  0  0  0  0  0  0  0
   52.3061   74.5932   26.1520 H   0  0  0  0  0  0  0  0  0  0  0  0
   53.7248   74.2638   28.4128 H   0  0  0  0  0  0  0  0  0  0  0  0
   55.4404   75.4513   29.7636 H   0  0  0  0  0  0  0  0  0  0  0  0
   55.6960   78.1070   30.8820 H   0  0  0  0  0  0  0  0  0  0  0  0
   58.4337   80.3252   26.9422 H   0  0  0  0  0  0  0  0  0  0  0  0
   60.6316   81.9038   28.3273 H   0  0  0  0  0  0  0  0  0  0  0  0
   62.6950   81.1460   30.4910 H   0  0  0  0  0  0  0  0  0  0  0  0
   65.4903   81.4712   31.9446 H   0  0  0  0  0  0  0  0  0  0  0  0
   64.6653   80.9666   30.4309 H   0  0  0  0  0  0  0  0  0  0  0  0
   65.7407   82.4053   30.4309 H   0  0  0  0  0  0  0  0  0  0  0  0
   64.1820   84.8543   31.5516 H   0  0  0  0  0  0  0  0  0  0  0  0
   64.9593   84.0799   30.1294 H   0  0  0  0  0  0  0  0  0  0  0  0
   63.1894   84.3866   30.1294 H   0  0  0  0  0  0  0  0  0  0  0  0
   64.3343   82.0530   33.3691 H   0  0  0  0  0  0  0  0  0  0  0  0
   64.0947   83.8271   33.2205 H   0  0  0  0  0  0  0  0  0  0  0  0
   62.6755   82.7260   33.2205 H   0  0  0  0  0  0  0  0  0  0  0  0
   58.6630   79.7893   32.7140 H   0  0  0  0  0  0  0  0  0  0  0  0
   59.5162   82.6673   33.0365 H   0  0  0  0  0  0  0  0  0  0  0  0
   58.1315   81.8544   33.7535 H   0  0  0  0  0  0  0  0  0  0  0  0
   60.2588   82.4042   35.3028 H   0  0  0  0  0  0  0  0  0  0  0  0
   59.5255   80.8250   35.5021 H   0  0  0  0  0  0  0  0  0  0  0  0
   61.9719   81.6167   33.8034 H   0  0  0  0  0  0  0  0  0  0  0  0
   61.8848   80.3120   34.9798 H   0  0  0  0  0  0  0  0  0  0  0  0
   61.5383   79.8798   32.2835 H   0  0  0  0  0  0  0  0  0  0  0  0
   60.6797   78.8867   33.4695 H   0  0  0  0  0  0  0  0  0  0  0  0
   53.9621   79.2299   28.3131 H   0  0  0  0  0  0  0  0  0  0  0  0
   52.2458   78.0486   26.9625 H   0  0  0  0  0  0  0  0  0  0  0  0
  1  2  1  0
  2  3  1  0
  3  4  2  0
  4  5  1  0
  5  6  1  0
  6  7  1  0
  7  8  2  0
  8  9  1  0
  9 10  2  0
 10 11  1  0
 11 12  2  0
 12 13  1  0
 13 14  2  0
 13 15  1  0
 15 16  1  0
 16 17  1  0
 16 18  1  0
 16 19  1  0
 12 20  1  0
 20 21  1  0
 21 22  1  0
 22 23  1  0
 23 24  1  0
 24 25  1  0
 20 26  1  0
 26 27  2  0
  5 28  2  0
 28 29  1  0
 29  2  2  0
 27  7  1  0
 26 10  1  0
 25 21  1  0
  1 30  1  0
  1 31  1  0
  1 32  1  0
  3 33  1  0
  4 34  1  0
  6 35  1  0
  9 36  1  0
 11 37  1  0
 15 38  1  0
 17 39  1  0
 17 40  1  0
 17 41  1  0
 18 42  1  0
 18 43  1  0
 18 44  1  0
 19 45  1  0
 19 46  1  0
 19 47  1  0
 21 48  1  0
 22 49  1  0
 22 50  1  0
 23 51  1  0
 23 52  1  0
 24 53  1  0
 24 54  1  0
 25 55  1  0
 25 56  1  0
 28 57  1  0
 29 58  1  0
M  END
>  <meeko>  (1) 
{"is_sidechain": false}

>  <smiles>  (1) 
Cc1ccc(Nc2ncc3cc(C(=O)NC(C)(C)C)n(C4CCCC4)c3n2)cc1

>  <vina_score>  (1) 
-8.522

>  <job_id>  (1) 
d3263ce7cd16c9ee

$$$$
