
     RDKit          3D

 39 40  0  0  0  0  0  0  0  0999 V2000
   52.4180   75.1520   26.5200 C   0  0  0  0  0  0  0  0  0  0  0  0
   52.1850   76.1070   27.6820 C   0  0  0  0  0  0  0  0  0  0  0  0
   53.4220   76.9120   28.0080 C   0  0  0  0  0  0  0  0  0  0  0  0
   54.3610   76.3840   28.9050 C   0  0  0  0  0  0  0  0  0  0  0  0
   55.5080   77.1060   29.2400 C   0  0  0  0  0  0  0  0  0  0  0  0
   55.7460   78.3720   28.6910 C   0  0  0  0  0  0  0  0  0  0  0  0
   56.9550   79.1350   29.0430 C   0  0  0  0  0  0  0  0  0  0  0  0
   57.4310   79.1730   30.3620 C   0  0  0  0  0  0  0  0  0  0  0  0
   58.5840   79.8950   30.7000 C   0  0  0  0  0  0  0  0  0  0  0  0
   59.2910   80.5980   29.7250 C   0  0  0  0  0  0  0  0  0  0  0  0
   60.4580   81.3460   29.9800 N   0  0  0  0  0  0  0  0  0  0  0  0
   60.5440   82.6090   30.5370 C   0  0  0  0  0  0  0  0  0  0  0  0
   61.9720   83.0870   30.6450 C   0  0  0  0  0  0  0  0  0  0  0  0
   59.6170   83.3230   30.8980 O   0  0  0  0  0  0  0  0  0  0  0  0
   58.8240   80.5680   28.4070 C   0  0  0  0  0  0  0  0  0  0  0  0
   57.6730   79.8470   28.0710 C   0  0  0  0  0  0  0  0  0  0  0  0
   54.7970   78.8990   27.7970 C   0  0  0  0  0  0  0  0  0  0  0  0
   53.6400   78.1860   27.4530 C   0  0  0  0  0  0  0  0  0  0  0  0
   52.6700   78.6390   26.5980 O   0  0  0  0  0  0  0  0  0  0  0  0
   52.7690   79.9830   26.1440 C   0  0  0  0  0  0  0  0  0  0  0  0
   52.6618   74.1527   26.9099 H   0  0  0  0  0  0  0  0  0  0  0  0
   51.5077   75.0937   25.9052 H   0  0  0  0  0  0  0  0  0  0  0  0
   53.2528   75.5194   25.9052 H   0  0  0  0  0  0  0  0  0  0  0  0
   51.3711   76.7978   27.4166 H   0  0  0  0  0  0  0  0  0  0  0  0
   51.9250   75.5086   28.5676 H   0  0  0  0  0  0  0  0  0  0  0  0
   54.1926   75.3918   29.3490 H   0  0  0  0  0  0  0  0  0  0  0  0
   56.2344   76.6747   29.9445 H   0  0  0  0  0  0  0  0  0  0  0  0
   56.8886   78.6253   31.1467 H   0  0  0  0  0  0  0  0  0  0  0  0
   58.9339   79.9071   31.7428 H   0  0  0  0  0  0  0  0  0  0  0  0
   61.3300   80.9040   29.7190 H   0  0  0  0  0  0  0  0  0  0  0  0
   62.2485   83.1795   31.7057 H   0  0  0  0  0  0  0  0  0  0  0  0
   62.6391   82.3632   30.1540 H   0  0  0  0  0  0  0  0  0  0  0  0
   62.0689   84.0666   30.1540 H   0  0  0  0  0  0  0  0  0  0  0  0
   59.3682   81.1179   27.6251 H   0  0  0  0  0  0  0  0  0  0  0  0
   57.3255   79.8384   27.0274 H   0  0  0  0  0  0  0  0  0  0  0  0
   54.9663   79.8932   27.3577 H   0  0  0  0  0  0  0  0  0  0  0  0
   52.8189   80.6597   27.0098 H   0  0  0  0  0  0  0  0  0  0  0  0
   53.6781   80.0985   25.5355 H   0  0  0  0  0  0  0  0  0  0  0  0
   51.8866   80.2304   25.5355 H   0  0  0  0  0  0  0  0  0  0  0  0
  1  2  1  0
  2  3  1  0
  3  4  1  0
  4  5  2  0
  5  6  1  0
  6  7  1  0
  7  8  1  0
  8  9  2  0
  9 10  1  0
 10 11  1  0
 11 12  1  0
 12 13  1  0
 12 14  2  0
 10 15  2  0
 15 16  1  0
  6 17  2  0
 17 18  1  0
 18 19  1  0
 19 20  1  0
 18  3  2  0
 16  7  2  0
  1 21  1  0
  1 22  1  0
  1 23  1  0
  2 24  1  0
  2 25  1  0
  4 26  1  0
  5 27  1  0
  8 28  1  0
  9 29  1  0
 11 30  1  0
 13 31  1  0
 13 32  1  0
 13 33  1  0
 15 34  1  0
 16 35  1  0
 17 36  1  0
 20 37  1  0
 20 38  1  0
 20 39  1  0
M  END
>  <meeko>  (1) 
{"is_sidechain": false}

>  <smiles>  (1) 
CCc1ccc(-c2ccc(NC(C)=O)cc2)cc1OC

>  <vina_score>  (1) 
-8.650

>  <job_id>  (1) 
d358a21bde4cfb25

$$$$
