
     RDKit          3D

 43 45  0  0  0  0  0  0  0  0999 V2000
   53.7880   79.5920   25.0220 C   0  0  0  0  0  0  0  0  0  0  0  0
   54.0580   79.3380   26.3940 O   0  0  0  0  0  0  0  0  0  0  0  0
   53.7380   78.1000   26.8930 C   0  0  0  0  0  0  0  0  0  0  0  0
   52.6940   77.3070   26.4010 C   0  0  0  0  0  0  0  0  0  0  0  0
   52.4350   76.0670   26.9760 C   0  0  0  0  0  0  0  0  0  0  0  0
   51.4320   75.3200   26.4970 F   0  0  0  0  0  0  0  0  0  0  0  0
   53.1920   75.5920   28.0360 C   0  0  0  0  0  0  0  0  0  0  0  0
   54.2350   76.3730   28.5300 C   0  0  0  0  0  0  0  0  0  0  0  0
   54.5290   77.6340   27.9720 C   0  0  0  0  0  0  0  0  0  0  0  0
   55.6460   78.4180   28.5310 C   0  0  0  0  0  0  0  0  0  0  0  0
   56.0210   78.2880   29.8730 C   0  0  0  0  0  0  0  0  0  0  0  0
   57.0970   79.0190   30.3970 C   0  0  0  0  0  0  0  0  0  0  0  0
   57.8460   79.9060   29.6100 C   0  0  0  0  0  0  0  0  0  0  0  0
   58.9100   80.6290   30.1460 N   0  0  0  0  0  0  0  0  0  0  0  0
   59.2750   80.4100   31.5470 C   0  0  0  0  0  0  0  0  0  0  0  0
   58.9560   81.5830   32.4720 C   0  0  0  0  0  0  0  0  0  0  0  0
   59.9350   82.7500   32.3080 C   0  0  0  0  0  0  0  0  0  0  0  0
   60.0470   83.2950   30.9600 N   0  0  0  0  0  0  0  0  0  0  0  0
   60.7110   82.3830   30.0210 C   0  0  0  0  0  0  0  0  0  0  0  0
   59.7570   81.4390   29.2620 C   0  0  0  0  0  0  0  0  0  0  0  0
   57.4600   80.0280   28.2680 C   0  0  0  0  0  0  0  0  0  0  0  0
   56.3860   79.2990   27.7360 C   0  0  0  0  0  0  0  0  0  0  0  0
   52.9891   80.3436   24.9385 H   0  0  0  0  0  0  0  0  0  0  0  0
   54.6984   79.9687   24.5328 H   0  0  0  0  0  0  0  0  0  0  0  0
   53.4675   78.6604   24.5328 H   0  0  0  0  0  0  0  0  0  0  0  0
   52.0797   77.6640   25.5612 H   0  0  0  0  0  0  0  0  0  0  0  0
   52.9720   74.6107   28.4816 H   0  0  0  0  0  0  0  0  0  0  0  0
   54.8393   75.9993   29.3697 H   0  0  0  0  0  0  0  0  0  0  0  0
   55.4631   77.6017   30.5270 H   0  0  0  0  0  0  0  0  0  0  0  0
   57.3615   78.8929   31.4572 H   0  0  0  0  0  0  0  0  0  0  0  0
   58.7297   79.5266   31.9107 H   0  0  0  0  0  0  0  0  0  0  0  0
   60.3669   80.2790   31.5706 H   0  0  0  0  0  0  0  0  0  0  0  0
   57.9406   81.9416   32.2478 H   0  0  0  0  0  0  0  0  0  0  0  0
   59.0411   81.2216   33.5075 H   0  0  0  0  0  0  0  0  0  0  0  0
   59.6086   83.5616   32.9749 H   0  0  0  0  0  0  0  0  0  0  0  0
   60.9284   82.3454   32.5520 H   0  0  0  0  0  0  0  0  0  0  0  0
   59.1080   83.4910   30.6120 H   0  0  0  0  0  0  0  0  0  0  0  0
   61.2554   82.9884   29.2813 H   0  0  0  0  0  0  0  0  0  0  0  0
   61.3716   81.7416   30.6229 H   0  0  0  0  0  0  0  0  0  0  0  0
   59.1058   82.0470   28.6167 H   0  0  0  0  0  0  0  0  0  0  0  0
   60.3824   80.7421   28.6848 H   0  0  0  0  0  0  0  0  0  0  0  0
   58.0154   80.7154   27.6130 H   0  0  0  0  0  0  0  0  0  0  0  0
   56.1214   79.4224   26.6755 H   0  0  0  0  0  0  0  0  0  0  0  0
  1  2  1  0
  2  3  1  0
  3  4  1  0
  4  5  2  0
  5  6  1  0
  5  7  1  0
  7  8  2  0
  8  9  1  0
  9 10  1  0
 10 11  1  0
 11 12  2  0
 12 13  1  0
 13 14  1  0
 14 15  1  0
 15 16  1  0
 16 17  1  0
 17 18  1  0
 18 19  1  0
 19 20  1  0
 13 21  2  0
 21 22  1  0
  9  3  2  0
 22 10  2  0
 20 14  1  0
  1 23  1  0
  1 24  1  0
  1 25  1  0
  4 26  1  0
  7 27  1  0
  8 28  1  0
 11 29  1  0
 12 30  1  0
 15 31  1  0
 15 32  1  0
 16 33  1  0
 16 34  1  0
 17 35  1  0
 17 36  1  0
 18 37  1  0
 19 38  1  0
 19 39  1  0
 20 40  1  0
 20 41  1  0
 21 42  1  0
 22 43  1  0
M  END
>  <meeko>  (1) 
{"is_sidechain": false}

>  <smiles>  (1) 
COc1cc(F)ccc1-c1ccc(N2CCCNCC2)cc1

>  <vina_score>  (1) 
-5.811

>  <job_id>  (1) 
d3868747b2b7f913

$$$$
