
     RDKit          3D

 53 55  0  0  0  0  0  0  0  0999 V2000
   63.9350   84.3250   30.0580 C   0  0  0  0  0  0  0  0  0  0  0  0
   63.0260   83.3860   30.8060 C   0  0  0  0  0  0  0  0  0  0  0  0
   63.6860   82.1070   31.2480 C   0  0  0  0  0  0  0  0  0  0  0  0
   61.7370   83.7120   31.0210 C   0  0  0  0  0  0  0  0  0  0  0  0
   60.7630   82.9010   31.8090 C   0  0  0  0  0  0  0  0  0  0  0  0
   60.5240   83.1300   32.9900 O   0  0  0  0  0  0  0  0  0  0  0  0
   60.0120   81.8340   31.0910 C   0  0  0  0  0  0  0  0  0  0  0  0
   59.2990   80.8350   31.7590 C   0  0  0  0  0  0  0  0  0  0  0  0
   58.6050   79.8570   31.0320 C   0  0  0  0  0  0  0  0  0  0  0  0
   58.5920   79.8570   29.6340 C   0  0  0  0  0  0  0  0  0  0  0  0
   57.9340   78.8980   28.8580 N   0  0  0  0  0  0  0  0  0  0  0  0
   56.6110   78.4820   28.7450 C   0  0  0  0  0  0  0  0  0  0  0  0
   56.0270   77.7020   29.6650 N   0  0  0  0  0  0  0  0  0  0  0  0
   54.7400   77.3660   29.4670 C   0  0  0  0  0  0  0  0  0  0  0  0
   54.0120   77.7700   28.3810 C   0  0  0  0  0  0  0  0  0  0  0  0
   54.6930   78.5530   27.4790 C   0  0  0  0  0  0  0  0  0  0  0  0
   54.0470   79.0790   26.2820 C   0  0  0  0  0  0  0  0  0  0  0  0
   53.4600   78.3860   25.2420 C   0  0  0  0  0  0  0  0  0  0  0  0
   52.9340   79.2280   24.3100 N   0  0  0  0  0  0  0  0  0  0  0  0
   53.1670   80.4470   24.7500 C   0  0  0  0  0  0  0  0  0  0  0  0
   52.7150   81.6700   24.0370 C   0  0  0  0  0  0  0  0  0  0  0  0
   53.8870   80.4160   25.9340 N   0  0  0  0  0  0  0  0  0  0  0  0
   54.4190   81.5540   26.6870 C   0  0  0  0  0  0  0  0  0  0  0  0
   53.3100   82.4830   27.1800 C   0  0  0  0  0  0  0  0  0  0  0  0
   55.5250   82.3270   25.9640 C   0  0  0  0  0  0  0  0  0  0  0  0
   55.9790   78.9180   27.6440 N   0  0  0  0  0  0  0  0  0  0  0  0
   59.3060   80.8730   28.9790 C   0  0  0  0  0  0  0  0  0  0  0  0
   60.0020   81.8550   29.6950 C   0  0  0  0  0  0  0  0  0  0  0  0
   64.5147   84.9238   30.7760 H   0  0  0  0  0  0  0  0  0  0  0  0
   64.6225   83.7439   29.4258 H   0  0  0  0  0  0  0  0  0  0  0  0
   63.3319   84.9933   29.4258 H   0  0  0  0  0  0  0  0  0  0  0  0
   63.7071   82.0661   32.3470 H   0  0  0  0  0  0  0  0  0  0  0  0
   63.1184   81.2484   30.8599 H   0  0  0  0  0  0  0  0  0  0  0  0
   64.7147   82.0721   30.8599 H   0  0  0  0  0  0  0  0  0  0  0  0
   61.3728   84.6517   30.5803 H   0  0  0  0  0  0  0  0  0  0  0  0
   59.2820   80.8156   32.8587 H   0  0  0  0  0  0  0  0  0  0  0  0
   58.0581   79.0716   31.5743 H   0  0  0  0  0  0  0  0  0  0  0  0
   58.4810   78.4330   28.1490 H   0  0  0  0  0  0  0  0  0  0  0  0
   54.2460   76.7324   30.2183 H   0  0  0  0  0  0  0  0  0  0  0  0
   52.9580   77.4886   28.2398 H   0  0  0  0  0  0  0  0  0  0  0  0
   53.4219   77.2887   25.1746 H   0  0  0  0  0  0  0  0  0  0  0  0
   52.4310   82.4385   24.7710 H   0  0  0  0  0  0  0  0  0  0  0  0
   53.5322   82.0497   23.4061 H   0  0  0  0  0  0  0  0  0  0  0  0
   51.8473   81.4270   23.4061 H   0  0  0  0  0  0  0  0  0  0  0  0
   54.9050   81.1086   27.5676 H   0  0  0  0  0  0  0  0  0  0  0  0
   53.3004   82.4911   28.2799 H   0  0  0  0  0  0  0  0  0  0  0  0
   53.4925   83.5018   26.8074 H   0  0  0  0  0  0  0  0  0  0  0  0
   52.3390   82.1248   26.8074 H   0  0  0  0  0  0  0  0  0  0  0  0
   56.1914   82.7927   26.7050 H   0  0  0  0  0  0  0  0  0  0  0  0
   56.1037   81.6357   25.3338 H   0  0  0  0  0  0  0  0  0  0  0  0
   55.0747   83.1080   25.3338 H   0  0  0  0  0  0  0  0  0  0  0  0
   59.3190   80.8983   27.8794 H   0  0  0  0  0  0  0  0  0  0  0  0
   60.5431   82.6462   29.1553 H   0  0  0  0  0  0  0  0  0  0  0  0
  1  2  1  0
  2  3  1  0
  2  4  2  3
  4  5  1  0
  5  6  2  0
  5  7  1  0
  7  8  1  0
  8  9  2  0
  9 10  1  0
 10 11  1  0
 11 12  1  0
 12 13  2  0
 13 14  1  0
 14 15  2  0
 15 16  1  0
 16 17  1  0
 17 18  2  0
 18 19  1  0
 19 20  2  0
 20 21  1  0
 20 22  1  0
 22 23  1  0
 23 24  1  0
 23 25  1  0
 16 26  2  0
 10 27  2  0
 27 28  1  0
 28  7  2  0
 26 12  1  0
 22 17  1  0
  1 29  1  0
  1 30  1  0
  1 31  1  0
  3 32  1  0
  3 33  1  0
  3 34  1  0
  4 35  1  0
  8 36  1  0
  9 37  1  0
 11 38  1  0
 14 39  1  0
 15 40  1  0
 18 41  1  0
 21 42  1  0
 21 43  1  0
 21 44  1  0
 23 45  1  0
 24 46  1  0
 24 47  1  0
 24 48  1  0
 25 49  1  0
 25 50  1  0
 25 51  1  0
 27 52  1  0
 28 53  1  0
M  END
>  <meeko>  (1) 
{"is_sidechain": false}

>  <smiles>  (1) 
CC(C)=CC(=O)c1ccc(Nc2nccc(-c3cnc(C)n3C(C)C)n2)cc1

>  <vina_score>  (1) 
-8.930

>  <job_id>  (1) 
d3a6262eee754a6d

$$$$
