
     RDKit          3D

 47 49  0  0  0  0  0  0  0  0999 V2000
   52.9350   79.9580   26.4120 C   0  0  0  0  0  0  0  0  0  0  0  0
   52.9400   78.6140   26.8730 O   0  0  0  0  0  0  0  0  0  0  0  0
   53.9800   78.2330   27.6760 C   0  0  0  0  0  0  0  0  0  0  0  0
   53.7580   77.0550   28.3950 C   0  0  0  0  0  0  0  0  0  0  0  0
   54.7260   76.5570   29.2690 C   0  0  0  0  0  0  0  0  0  0  0  0
   55.9350   77.2320   29.4190 C   0  0  0  0  0  0  0  0  0  0  0  0
   56.1770   78.3960   28.6830 C   0  0  0  0  0  0  0  0  0  0  0  0
   57.4830   79.0880   28.8590 C   0  0  0  0  0  0  0  0  0  0  0  0
   58.3540   78.9000   28.0200 O   0  0  0  0  0  0  0  0  0  0  0  0
   57.5490   79.9140   29.9650 N   0  0  0  0  0  0  0  0  0  0  0  0
   58.6590   80.6640   30.4070 C   0  0  0  0  0  0  0  0  0  0  0  0
   59.4540   81.4460   29.5760 C   0  0  0  0  0  0  0  0  0  0  0  0
   60.5470   82.1540   30.1010 C   0  0  0  0  0  0  0  0  0  0  0  0
   60.8930   82.0970   31.4600 C   0  0  0  0  0  0  0  0  0  0  0  0
   61.9900   82.8300   31.9360 N   0  0  0  0  0  0  0  0  0  0  0  0
   62.4630   83.8970   31.0200 C   0  0  0  0  0  0  0  0  0  0  0  0
   63.4940   84.8180   31.7190 C   0  0  0  0  0  0  0  0  0  0  0  0
   64.6300   84.1310   32.3740 N   0  0  0  0  0  0  0  0  0  0  0  0
   65.5680   83.5910   31.3950 C   0  0  0  0  0  0  0  0  0  0  0  0
   64.0910   83.0760   33.2600 C   0  0  0  0  0  0  0  0  0  0  0  0
   63.0900   82.0980   32.5970 C   0  0  0  0  0  0  0  0  0  0  0  0
   60.0690   81.3180   32.2820 C   0  0  0  0  0  0  0  0  0  0  0  0
   58.9750   80.6070   31.7650 C   0  0  0  0  0  0  0  0  0  0  0  0
   55.1930   78.9080   27.8210 C   0  0  0  0  0  0  0  0  0  0  0  0
   52.9325   80.6413   27.2740 H   0  0  0  0  0  0  0  0  0  0  0  0
   53.8325   80.1399   25.8025 H   0  0  0  0  0  0  0  0  0  0  0  0
   52.0362   80.1333   25.8025 H   0  0  0  0  0  0  0  0  0  0  0  0
   52.8086   76.5136   28.2706 H   0  0  0  0  0  0  0  0  0  0  0  0
   54.5346   75.6348   29.8372 H   0  0  0  0  0  0  0  0  0  0  0  0
   56.6972   76.8506   30.1144 H   0  0  0  0  0  0  0  0  0  0  0  0
   56.6920   80.0570   30.4820 H   0  0  0  0  0  0  0  0  0  0  0  0
   59.2254   81.5102   28.5019 H   0  0  0  0  0  0  0  0  0  0  0  0
   61.1527   82.7745   29.4241 H   0  0  0  0  0  0  0  0  0  0  0  0
   62.9343   83.4327   30.1412 H   0  0  0  0  0  0  0  0  0  0  0  0
   61.5983   84.5068   30.7192 H   0  0  0  0  0  0  0  0  0  0  0  0
   63.9043   85.5018   30.9613 H   0  0  0  0  0  0  0  0  0  0  0  0
   62.9443   85.3238   32.5265 H   0  0  0  0  0  0  0  0  0  0  0  0
   66.4066   83.1082   31.9182 H   0  0  0  0  0  0  0  0  0  0  0  0
   65.0541   82.8505   30.7645 H   0  0  0  0  0  0  0  0  0  0  0  0
   65.9503   84.4073   30.7645 H   0  0  0  0  0  0  0  0  0  0  0  0
   64.9385   82.4873   33.6410 H   0  0  0  0  0  0  0  0  0  0  0  0
   63.5271   83.5997   34.0459 H   0  0  0  0  0  0  0  0  0  0  0  0
   63.6213   81.4939   31.8468 H   0  0  0  0  0  0  0  0  0  0  0  0
   62.6610   81.4539   33.3787 H   0  0  0  0  0  0  0  0  0  0  0  0
   60.2846   81.2621   33.3592 H   0  0  0  0  0  0  0  0  0  0  0  0
   58.3577   79.9960   32.4400 H   0  0  0  0  0  0  0  0  0  0  0  0
   55.3778   79.8374   27.2624 H   0  0  0  0  0  0  0  0  0  0  0  0
  1  2  1  0
  2  3  1  0
  3  4  1  0
  4  5  2  0
  5  6  1  0
  6  7  2  0
  7  8  1  0
  8  9  2  0
  8 10  1  0
 10 11  1  0
 11 12  1  0
 12 13  2  0
 13 14  1  0
 14 15  1  0
 15 16  1  0
 16 17  1  0
 17 18  1  0
 18 19  1  0
 18 20  1  0
 20 21  1  0
 14 22  2  0
 22 23  1  0
  7 24  1  0
 24  3  2  0
 23 11  2  0
 21 15  1  0
  1 25  1  0
  1 26  1  0
  1 27  1  0
  4 28  1  0
  5 29  1  0
  6 30  1  0
 10 31  1  0
 12 32  1  0
 13 33  1  0
 16 34  1  0
 16 35  1  0
 17 36  1  0
 17 37  1  0
 19 38  1  0
 19 39  1  0
 19 40  1  0
 20 41  1  0
 20 42  1  0
 21 43  1  0
 21 44  1  0
 22 45  1  0
 23 46  1  0
 24 47  1  0
M  END
>  <meeko>  (1) 
{"is_sidechain": false}

>  <smiles>  (1) 
COc1cccc(C(=O)Nc2ccc(N3CCN(C)CC3)cc2)c1

>  <vina_score>  (1) 
-7.668

>  <job_id>  (1) 
d3bbfd4065c73e4f

$$$$
