
     RDKit          3D

 43 46  0  0  0  0  0  0  0  0999 V2000
   60.0990   80.2320   35.8470 O   0  0  0  0  0  0  0  0  0  0  0  0
   60.0440   80.8710   34.8030 C   0  0  0  0  0  0  0  0  0  0  0  0
   58.8590   81.3530   34.3000 N   0  0  0  0  0  0  0  0  0  0  0  0
   58.7320   82.0760   33.1540 C   0  0  0  0  0  0  0  0  0  0  0  0
   57.4350   82.4280   32.8950 O   0  0  0  0  0  0  0  0  0  0  0  0
   59.8030   82.3830   32.4000 C   0  0  0  0  0  0  0  0  0  0  0  0
   59.5950   83.2080   31.1850 C   0  0  0  0  0  0  0  0  0  0  0  0
   59.5940   82.8570   29.9500 N   0  0  0  0  0  0  0  0  0  0  0  0
   59.9270   81.4740   29.5840 C   0  0  0  0  0  0  0  0  0  0  0  0
   58.7150   80.6140   29.3240 C   0  0  0  0  0  0  0  0  0  0  0  0
   58.2180   79.7640   30.3200 C   0  0  0  0  0  0  0  0  0  0  0  0
   57.0890   78.9740   30.0850 C   0  0  0  0  0  0  0  0  0  0  0  0
   56.4320   79.0170   28.8480 C   0  0  0  0  0  0  0  0  0  0  0  0
   55.2890   78.1520   28.6330 C   0  0  0  0  0  0  0  0  0  0  0  0
   54.0450   78.4130   27.9980 C   0  0  0  0  0  0  0  0  0  0  0  0
   53.3110   77.2540   28.0970 C   0  0  0  0  0  0  0  0  0  0  0  0
   54.0100   76.3040   28.7700 O   0  0  0  0  0  0  0  0  0  0  0  0
   55.2010   76.8600   29.1100 C   0  0  0  0  0  0  0  0  0  0  0  0
   56.9220   79.8850   27.8600 C   0  0  0  0  0  0  0  0  0  0  0  0
   56.3220   80.0550   26.6410 O   0  0  0  0  0  0  0  0  0  0  0  0
   58.0600   80.6600   28.0870 C   0  0  0  0  0  0  0  0  0  0  0  0
   61.1410   81.9320   32.8290 C   0  0  0  0  0  0  0  0  0  0  0  0
   62.2980   82.2040   32.0840 C   0  0  0  0  0  0  0  0  0  0  0  0
   63.5410   81.7320   32.5180 C   0  0  0  0  0  0  0  0  0  0  0  0
   65.2410   82.1420   31.3950 I   0  0  0  0  0  0  0  0  0  0  0  0
   63.6520   80.9890   33.6920 C   0  0  0  0  0  0  0  0  0  0  0  0
   62.5080   80.7100   34.4410 C   0  0  0  0  0  0  0  0  0  0  0  0
   61.2620   81.1790   34.0090 C   0  0  0  0  0  0  0  0  0  0  0  0
   58.0220   81.1500   34.8320 H   0  0  0  0  0  0  0  0  0  0  0  0
   56.9990   82.7080   33.7200 H   0  0  0  0  0  0  0  0  0  0  0  0
   59.4152   84.2775   31.3691 H   0  0  0  0  0  0  0  0  0  0  0  0
   60.5427   81.4932   28.6727 H   0  0  0  0  0  0  0  0  0  0  0  0
   60.4613   81.0321   30.4379 H   0  0  0  0  0  0  0  0  0  0  0  0
   58.7212   79.7176   31.2971 H   0  0  0  0  0  0  0  0  0  0  0  0
   56.7126   78.3121   30.8789 H   0  0  0  0  0  0  0  0  0  0  0  0
   53.7316   79.3540   27.5223 H   0  0  0  0  0  0  0  0  0  0  0  0
   52.2992   77.1159   27.6882 H   0  0  0  0  0  0  0  0  0  0  0  0
   55.9875   76.3508   29.6863 H   0  0  0  0  0  0  0  0  0  0  0  0
   56.9100   80.5890   26.0790 H   0  0  0  0  0  0  0  0  0  0  0  0
   58.4453   81.3116   27.2888 H   0  0  0  0  0  0  0  0  0  0  0  0
   62.2275   82.7902   31.1559 H   0  0  0  0  0  0  0  0  0  0  0  0
   64.6348   80.6249   34.0260 H   0  0  0  0  0  0  0  0  0  0  0  0
   62.5853   80.1232   35.3682 H   0  0  0  0  0  0  0  0  0  0  0  0
  1  2  2  0
  2  3  1  0
  3  4  1  0
  4  5  1  0
  4  6  2  0
  6  7  1  0
  7  8  2  3
  8  9  1  0
  9 10  1  0
 10 11  1  0
 11 12  2  0
 12 13  1  0
 13 14  1  0
 14 15  1  0
 15 16  2  0
 16 17  1  0
 17 18  1  0
 13 19  2  0
 19 20  1  0
 19 21  1  0
  6 22  1  0
 22 23  2  0
 23 24  1  0
 24 25  1  0
 24 26  2  0
 26 27  1  0
 27 28  2  0
 28  2  1  0
 21 10  2  0
 28 22  1  0
 18 14  2  0
  3 29  1  0
  5 30  1  0
  7 31  1  0
  9 32  1  0
  9 33  1  0
 11 34  1  0
 12 35  1  0
 15 36  1  0
 16 37  1  0
 18 38  1  0
 20 39  1  0
 21 40  1  0
 23 41  1  0
 26 42  1  0
 27 43  1  0
M  END
>  <meeko>  (1) 
{"is_sidechain": false}

>  <smiles>  (1) 
O=c1[nH]c(O)c(C=NCc2ccc(-c3ccoc3)c(O)c2)c2cc(I)ccc12

>  <vina_score>  (1) 
-8.576

>  <job_id>  (1) 
d3cf58742e9c2ef0

$$$$
