
     RDKit          3D

 43 45  0  0  0  0  0  0  0  0999 V2000
   52.7960   81.2500   23.9220 C   0  0  0  0  0  0  0  0  0  0  0  0
   53.1800   80.0240   24.6720 C   0  0  0  0  0  0  0  0  0  0  0  0
   52.9320   78.7980   24.2640 N   0  0  0  0  0  0  0  0  0  0  0  0
   53.4060   77.9820   25.2470 C   0  0  0  0  0  0  0  0  0  0  0  0
   53.9650   78.7010   26.2880 C   0  0  0  0  0  0  0  0  0  0  0  0
   54.5650   78.1850   27.5080 C   0  0  0  0  0  0  0  0  0  0  0  0
   55.5680   78.9300   28.0200 N   0  0  0  0  0  0  0  0  0  0  0  0
   56.1030   78.5170   29.1750 C   0  0  0  0  0  0  0  0  0  0  0  0
   57.1080   79.2170   29.8240 N   0  0  0  0  0  0  0  0  0  0  0  0
   58.2110   79.7910   29.2470 C   0  0  0  0  0  0  0  0  0  0  0  0
   58.5440   79.7360   28.0710 O   0  0  0  0  0  0  0  0  0  0  0  0
   59.0990   80.5240   30.1960 C   0  0  0  0  0  0  0  0  0  0  0  0
   60.0600   81.4440   29.7550 C   0  0  0  0  0  0  0  0  0  0  0  0
   60.8680   82.1070   30.6810 C   0  0  0  0  0  0  0  0  0  0  0  0
   60.7270   81.8480   32.0450 C   0  0  0  0  0  0  0  0  0  0  0  0
   59.7870   80.9200   32.4870 C   0  0  0  0  0  0  0  0  0  0  0  0
   58.9770   80.2540   31.5660 C   0  0  0  0  0  0  0  0  0  0  0  0
   55.7210   77.4090   29.8350 N   0  0  0  0  0  0  0  0  0  0  0  0
   54.7160   76.6940   29.2880 C   0  0  0  0  0  0  0  0  0  0  0  0
   54.0910   77.0450   28.1210 C   0  0  0  0  0  0  0  0  0  0  0  0
   53.0920   76.3060   27.6240 F   0  0  0  0  0  0  0  0  0  0  0  0
   53.8510   80.0210   25.8870 N   0  0  0  0  0  0  0  0  0  0  0  0
   54.3700   81.2270   26.5340 C   0  0  0  0  0  0  0  0  0  0  0  0
   53.3100   82.2730   26.8870 C   0  0  0  0  0  0  0  0  0  0  0  0
   55.5430   81.8370   25.7720 C   0  0  0  0  0  0  0  0  0  0  0  0
   52.5451   82.0511   24.6328 H   0  0  0  0  0  0  0  0  0  0  0  0
   53.6366   81.5712   23.2893 H   0  0  0  0  0  0  0  0  0  0  0  0
   51.9224   81.0343   23.2893 H   0  0  0  0  0  0  0  0  0  0  0  0
   53.3507   76.8838   25.2163 H   0  0  0  0  0  0  0  0  0  0  0  0
   56.9750   79.2420   30.8210 H   0  0  0  0  0  0  0  0  0  0  0  0
   60.1777   81.6437   28.6797 H   0  0  0  0  0  0  0  0  0  0  0  0
   61.6168   82.8346   30.3347 H   0  0  0  0  0  0  0  0  0  0  0  0
   61.3595   82.3778   32.7726 H   0  0  0  0  0  0  0  0  0  0  0  0
   59.6830   80.7120   33.5621 H   0  0  0  0  0  0  0  0  0  0  0  0
   58.2410   79.5153   31.9162 H   0  0  0  0  0  0  0  0  0  0  0  0
   54.3816   75.7828   29.8057 H   0  0  0  0  0  0  0  0  0  0  0  0
   54.7500   80.8733   27.5038 H   0  0  0  0  0  0  0  0  0  0  0  0
   53.2263   82.3556   27.9807 H   0  0  0  0  0  0  0  0  0  0  0  0
   53.6018   83.2469   26.4670 H   0  0  0  0  0  0  0  0  0  0  0  0
   52.3401   81.9683   26.4670 H   0  0  0  0  0  0  0  0  0  0  0  0
   56.2843   82.2225   26.4874 H   0  0  0  0  0  0  0  0  0  0  0  0
   56.0095   81.0673   25.1396 H   0  0  0  0  0  0  0  0  0  0  0  0
   55.1807   82.6609   25.1396 H   0  0  0  0  0  0  0  0  0  0  0  0
  1  2  1  0
  2  3  2  0
  3  4  1  0
  4  5  2  0
  5  6  1  0
  6  7  2  0
  7  8  1  0
  8  9  1  0
  9 10  1  0
 10 11  2  0
 10 12  1  0
 12 13  2  0
 13 14  1  0
 14 15  2  0
 15 16  1  0
 16 17  2  0
  8 18  2  0
 18 19  1  0
 19 20  2  0
 20 21  1  0
  5 22  1  0
 22 23  1  0
 23 24  1  0
 23 25  1  0
 22  2  1  0
 20  6  1  0
 17 12  1  0
  1 26  1  0
  1 27  1  0
  1 28  1  0
  4 29  1  0
  9 30  1  0
 13 31  1  0
 14 32  1  0
 15 33  1  0
 16 34  1  0
 17 35  1  0
 19 36  1  0
 23 37  1  0
 24 38  1  0
 24 39  1  0
 24 40  1  0
 25 41  1  0
 25 42  1  0
 25 43  1  0
M  END
>  <meeko>  (1) 
{"is_sidechain": false}

>  <smiles>  (1) 
Cc1ncc(-c2nc(NC(=O)c3ccccc3)ncc2F)n1C(C)C

>  <vina_score>  (1) 
-8.778

>  <job_id>  (1) 
d3d931eefae4d9d6

$$$$
