
     RDKit          3D

 39 41  0  0  0  0  0  0  0  0999 V2000
   59.5790   82.4930   29.1450 F   0  0  0  0  0  0  0  0  0  0  0  0
   59.0550   82.2180   30.3480 C   0  0  0  0  0  0  0  0  0  0  0  0
   58.8740   83.2620   31.2510 C   0  0  0  0  0  0  0  0  0  0  0  0
   58.3410   83.0000   32.5120 C   0  0  0  0  0  0  0  0  0  0  0  0
   57.9980   81.6950   32.8630 C   0  0  0  0  0  0  0  0  0  0  0  0
   58.1830   80.6520   31.9520 C   0  0  0  0  0  0  0  0  0  0  0  0
   58.7060   80.9040   30.6740 C   0  0  0  0  0  0  0  0  0  0  0  0
   58.9360   79.7850   29.6890 C   0  0  0  0  0  0  0  0  0  0  0  0
   57.7300   78.9710   29.5700 N   0  0  0  0  0  0  0  0  0  0  0  0
   56.8410   79.2090   28.5180 C   0  0  0  0  0  0  0  0  0  0  0  0
   55.6330   78.5450   28.3460 C   0  0  0  0  0  0  0  0  0  0  0  0
   54.7700   78.9010   27.3050 C   0  0  0  0  0  0  0  0  0  0  0  0
   55.1030   79.9410   26.4370 C   0  0  0  0  0  0  0  0  0  0  0  0
   54.2190   80.2940   25.3990 N   0  0  0  0  0  0  0  0  0  0  0  0
   53.1240   81.1800   25.8520 C   0  0  0  0  0  0  0  0  0  0  0  0
   52.2410   81.5690   24.6530 C   0  0  0  0  0  0  0  0  0  0  0  0
   51.7220   80.4130   23.9780 O   0  0  0  0  0  0  0  0  0  0  0  0
   52.8010   79.5870   23.5090 C   0  0  0  0  0  0  0  0  0  0  0  0
   53.6940   79.1180   24.6690 C   0  0  0  0  0  0  0  0  0  0  0  0
   56.2410   80.6400   26.6210 N   0  0  0  0  0  0  0  0  0  0  0  0
   57.0580   80.2720   27.6420 C   0  0  0  0  0  0  0  0  0  0  0  0
   59.1504   84.2891   30.9706 H   0  0  0  0  0  0  0  0  0  0  0  0
   58.1913   83.8210   33.2286 H   0  0  0  0  0  0  0  0  0  0  0  0
   57.5809   81.4862   33.8592 H   0  0  0  0  0  0  0  0  0  0  0  0
   57.9164   79.6241   32.2388 H   0  0  0  0  0  0  0  0  0  0  0  0
   59.1872   80.2103   28.7062 H   0  0  0  0  0  0  0  0  0  0  0  0
   59.7644   79.1546   30.0445 H   0  0  0  0  0  0  0  0  0  0  0  0
   57.2430   78.8820   30.4610 H   0  0  0  0  0  0  0  0  0  0  0  0
   55.3533   77.7333   29.0337 H   0  0  0  0  0  0  0  0  0  0  0  0
   53.8231   78.3578   27.1698 H   0  0  0  0  0  0  0  0  0  0  0  0
   52.5133   80.6532   26.6000 H   0  0  0  0  0  0  0  0  0  0  0  0
   53.5526   82.0893   26.2986 H   0  0  0  0  0  0  0  0  0  0  0  0
   51.3995   82.1791   25.0132 H   0  0  0  0  0  0  0  0  0  0  0  0
   52.8603   82.1329   23.9400 H   0  0  0  0  0  0  0  0  0  0  0  0
   52.3823   78.7058   23.0009 H   0  0  0  0  0  0  0  0  0  0  0  0
   53.4161   80.1812   22.8172 H   0  0  0  0  0  0  0  0  0  0  0  0
   53.1036   78.4942   25.3563 H   0  0  0  0  0  0  0  0  0  0  0  0
   54.5343   78.5316   24.2689 H   0  0  0  0  0  0  0  0  0  0  0  0
   57.9721   80.8654   27.7910 H   0  0  0  0  0  0  0  0  0  0  0  0
  1  2  1  0
  2  3  2  0
  3  4  1  0
  4  5  2  0
  5  6  1  0
  6  7  2  0
  7  8  1  0
  8  9  1  0
  9 10  1  0
 10 11  2  0
 11 12  1  0
 12 13  2  0
 13 14  1  0
 14 15  1  0
 15 16  1  0
 16 17  1  0
 17 18  1  0
 18 19  1  0
 13 20  1  0
 20 21  2  0
  7  2  1  0
 21 10  1  0
 19 14  1  0
  3 22  1  0
  4 23  1  0
  5 24  1  0
  6 25  1  0
  8 26  1  0
  8 27  1  0
  9 28  1  0
 11 29  1  0
 12 30  1  0
 15 31  1  0
 15 32  1  0
 16 33  1  0
 16 34  1  0
 18 35  1  0
 18 36  1  0
 19 37  1  0
 19 38  1  0
 21 39  1  0
M  END
>  <meeko>  (1) 
{"is_sidechain": false}

>  <smiles>  (1) 
Fc1ccccc1CNc1ccc(N2CCOCC2)nc1

>  <vina_score>  (1) 
-7.566

>  <job_id>  (1) 
d46303910a1c8688

$$$$
