
     RDKit          3D

 47 49  0  0  0  0  0  0  0  0999 V2000
   52.7000   83.2320   26.4330 C   0  0  0  0  0  0  0  0  0  0  0  0
   53.6610   82.8700   25.3010 C   0  0  0  0  0  0  0  0  0  0  0  0
   55.1230   82.7260   25.7730 C   0  0  0  0  0  0  0  0  0  0  0  0
   55.5600   83.7780   26.7860 C   0  0  0  0  0  0  0  0  0  0  0  0
   55.9500   84.9820   26.1450 O   0  0  0  0  0  0  0  0  0  0  0  0
   53.2020   81.5730   24.6320 C   0  0  0  0  0  0  0  0  0  0  0  0
   52.1700   81.4800   23.9750 O   0  0  0  0  0  0  0  0  0  0  0  0
   54.0600   80.5080   24.8310 N   0  0  0  0  0  0  0  0  0  0  0  0
   53.7030   79.1780   24.3730 C   0  0  0  0  0  0  0  0  0  0  0  0
   52.9240   78.4140   25.4310 C   0  0  0  0  0  0  0  0  0  0  0  0
   53.7810   78.2220   26.6430 C   0  0  0  0  0  0  0  0  0  0  0  0
   54.9530   78.7770   26.7900 N   0  0  0  0  0  0  0  0  0  0  0  0
   55.3970   78.3600   28.0060 N   0  0  0  0  0  0  0  0  0  0  0  0
   56.5290   78.5740   28.7360 C   0  0  0  0  0  0  0  0  0  0  0  0
   57.6620   79.4010   28.2670 C   0  0  0  0  0  0  0  0  0  0  0  0
   58.6910   79.3970   29.2620 O   0  0  0  0  0  0  0  0  0  0  0  0
   58.8750   80.5210   30.0170 C   0  0  0  0  0  0  0  0  0  0  0  0
   58.6660   80.3360   31.3890 C   0  0  0  0  0  0  0  0  0  0  0  0
   58.8100   81.3990   32.2820 C   0  0  0  0  0  0  0  0  0  0  0  0
   59.1560   82.6580   31.8010 C   0  0  0  0  0  0  0  0  0  0  0  0
   59.3340   83.9740   32.8950 Cl  0  0  0  0  0  0  0  0  0  0  0  0
   59.3560   82.8570   30.4370 C   0  0  0  0  0  0  0  0  0  0  0  0
   59.2130   81.7890   29.5440 C   0  0  0  0  0  0  0  0  0  0  0  0
   56.4090   77.9340   29.8950 N   0  0  0  0  0  0  0  0  0  0  0  0
   55.1820   77.2760   29.9110 N   0  0  0  0  0  0  0  0  0  0  0  0
   54.6220   77.5540   28.7700 C   0  0  0  0  0  0  0  0  0  0  0  0
   53.1590   77.2010   27.9650 S   0  0  0  0  0  0  0  0  0  0  0  0
   53.1883   83.0481   27.4014 H   0  0  0  0  0  0  0  0  0  0  0  0
   52.4267   84.2947   26.3562 H   0  0  0  0  0  0  0  0  0  0  0  0
   51.7934   82.6137   26.3562 H   0  0  0  0  0  0  0  0  0  0  0  0
   53.6389   83.7018   24.5815 H   0  0  0  0  0  0  0  0  0  0  0  0
   55.2405   81.7340   26.2336 H   0  0  0  0  0  0  0  0  0  0  0  0
   55.7565   82.8614   24.8840 H   0  0  0  0  0  0  0  0  0  0  0  0
   54.7220   83.9898   27.4664 H   0  0  0  0  0  0  0  0  0  0  0  0
   56.4242   83.3857   27.3421 H   0  0  0  0  0  0  0  0  0  0  0  0
   55.5940   84.9590   25.2400 H   0  0  0  0  0  0  0  0  0  0  0  0
   54.7230   80.5900   25.5920 H   0  0  0  0  0  0  0  0  0  0  0  0
   53.0843   79.2660   23.4678 H   0  0  0  0  0  0  0  0  0  0  0  0
   54.6305   78.6256   24.1618 H   0  0  0  0  0  0  0  0  0  0  0  0
   52.0237   78.9833   25.7054 H   0  0  0  0  0  0  0  0  0  0  0  0
   52.6304   77.4321   25.0313 H   0  0  0  0  0  0  0  0  0  0  0  0
   58.0566   78.9858   27.3279 H   0  0  0  0  0  0  0  0  0  0  0  0
   57.3200   80.4319   28.0931 H   0  0  0  0  0  0  0  0  0  0  0  0
   58.3852   79.3420   31.7673 H   0  0  0  0  0  0  0  0  0  0  0  0
   58.6510   81.2425   33.3591 H   0  0  0  0  0  0  0  0  0  0  0  0
   59.6267   83.8548   30.0613 H   0  0  0  0  0  0  0  0  0  0  0  0
   59.3675   81.9498   28.4668 H   0  0  0  0  0  0  0  0  0  0  0  0
  1  2  1  0
  2  3  1  0
  3  4  1  0
  4  5  1  0
  2  6  1  0
  6  7  2  0
  6  8  1  0
  8  9  1  0
  9 10  1  0
 10 11  1  0
 11 12  2  0
 12 13  1  0
 13 14  1  0
 14 15  1  0
 15 16  1  0
 16 17  1  0
 17 18  1  0
 18 19  2  0
 19 20  1  0
 20 21  1  0
 20 22  2  0
 22 23  1  0
 14 24  2  0
 24 25  1  0
 25 26  2  0
 26 27  1  0
 27 11  1  0
 26 13  1  0
 23 17  2  0
  1 28  1  0
  1 29  1  0
  1 30  1  0
  2 31  1  0
  3 32  1  0
  3 33  1  0
  4 34  1  0
  4 35  1  0
  5 36  1  0
  8 37  1  0
  9 38  1  0
  9 39  1  0
 10 40  1  0
 10 41  1  0
 15 42  1  0
 15 43  1  0
 18 44  1  0
 19 45  1  0
 22 46  1  0
 23 47  1  0
M  END
>  <meeko>  (1) 
{"is_sidechain": false}

>  <smiles>  (1) 
CC(CCO)C(=O)NCCc1nn2c(COc3ccc(Cl)cc3)nnc2s1

>  <vina_score>  (1) 
-7.159

>  <job_id>  (1) 
d474b0473876a04a

$$$$
