
     RDKit          3D

 48 50  0  0  0  0  0  0  0  0999 V2000
   52.8860   76.8530   27.6430 C   0  0  0  0  0  0  0  0  0  0  0  0
   52.7170   78.1080   26.9790 O   0  0  0  0  0  0  0  0  0  0  0  0
   53.8930   78.8230   27.0450 C   0  0  0  0  0  0  0  0  0  0  0  0
   54.7980   78.4170   28.0360 C   0  0  0  0  0  0  0  0  0  0  0  0
   56.0400   79.0440   28.1620 C   0  0  0  0  0  0  0  0  0  0  0  0
   57.0280   78.5870   29.2060 C   0  0  0  0  0  0  0  0  0  0  0  0
   58.3450   79.1150   28.8810 N   0  0  0  0  0  0  0  0  0  0  0  0
   58.8930   80.1340   29.6650 C   0  0  0  0  0  0  0  0  0  0  0  0
   59.6470   81.1930   29.1460 C   0  0  0  0  0  0  0  0  0  0  0  0
   60.1130   82.2240   29.9690 C   0  0  0  0  0  0  0  0  0  0  0  0
   59.8060   82.2300   31.3260 C   0  0  0  0  0  0  0  0  0  0  0  0
   59.0220   81.2100   31.8550 C   0  0  0  0  0  0  0  0  0  0  0  0
   58.5600   80.1830   31.0270 C   0  0  0  0  0  0  0  0  0  0  0  0
   56.3560   80.0720   27.2700 C   0  0  0  0  0  0  0  0  0  0  0  0
   55.4330   80.4870   26.2980 C   0  0  0  0  0  0  0  0  0  0  0  0
   54.1620   79.9000   26.1700 C   0  0  0  0  0  0  0  0  0  0  0  0
   53.2470   80.3500   25.2200 N   0  0  0  0  0  0  0  0  0  0  0  0
   52.6730   81.7050   25.3680 C   0  0  0  0  0  0  0  0  0  0  0  0
   52.5690   82.4250   24.0020 C   0  0  0  0  0  0  0  0  0  0  0  0
   51.7590   81.7020   22.9950 N   0  0  0  0  0  0  0  0  0  0  0  0
   52.0840   82.1650   21.6490 C   0  0  0  0  0  0  0  0  0  0  0  0
   51.9150   80.2380   23.1300 C   0  0  0  0  0  0  0  0  0  0  0  0
   53.1950   79.7760   23.8680 C   0  0  0  0  0  0  0  0  0  0  0  0
   52.8651   77.0085   28.7318 H   0  0  0  0  0  0  0  0  0  0  0  0
   52.0714   76.1727   27.3540 H   0  0  0  0  0  0  0  0  0  0  0  0
   53.8516   76.4124   27.3540 H   0  0  0  0  0  0  0  0  0  0  0  0
   54.5280   77.5985   28.7195 H   0  0  0  0  0  0  0  0  0  0  0  0
   56.7168   78.9568   30.1941 H   0  0  0  0  0  0  0  0  0  0  0  0
   57.0644   77.4878   29.2248 H   0  0  0  0  0  0  0  0  0  0  0  0
   58.4550   79.2970   27.8870 H   0  0  0  0  0  0  0  0  0  0  0  0
   59.8775   81.2150   28.0707 H   0  0  0  0  0  0  0  0  0  0  0  0
   60.7242   83.0326   29.5417 H   0  0  0  0  0  0  0  0  0  0  0  0
   60.1803   83.0350   31.9755 H   0  0  0  0  0  0  0  0  0  0  0  0
   58.7656   81.2116   32.9247 H   0  0  0  0  0  0  0  0  0  0  0  0
   57.9209   79.3954   31.4529 H   0  0  0  0  0  0  0  0  0  0  0  0
   57.3393   80.5614   27.3304 H   0  0  0  0  0  0  0  0  0  0  0  0
   55.7137   81.3000   25.6123 H   0  0  0  0  0  0  0  0  0  0  0  0
   51.6676   81.6221   25.8066 H   0  0  0  0  0  0  0  0  0  0  0  0
   53.3355   82.2929   26.0203 H   0  0  0  0  0  0  0  0  0  0  0  0
   52.1137   83.4127   24.1664 H   0  0  0  0  0  0  0  0  0  0  0  0
   53.5907   82.4885   23.5995 H   0  0  0  0  0  0  0  0  0  0  0  0
   52.7149   83.0638   21.7128 H   0  0  0  0  0  0  0  0  0  0  0  0
   52.6261   81.3740   21.1101 H   0  0  0  0  0  0  0  0  0  0  0  0
   51.1559   82.4060   21.1101 H   0  0  0  0  0  0  0  0  0  0  0  0
   51.0457   79.8529   23.6831 H   0  0  0  0  0  0  0  0  0  0  0  0
   51.9945   79.8441   22.1060 H   0  0  0  0  0  0  0  0  0  0  0  0
   53.1943   78.6784   23.9408 H   0  0  0  0  0  0  0  0  0  0  0  0
   54.0741   80.1188   23.3026 H   0  0  0  0  0  0  0  0  0  0  0  0
  1  2  1  0
  2  3  1  0
  3  4  1  0
  4  5  2  0
  5  6  1  0
  6  7  1  0
  7  8  1  0
  8  9  2  0
  9 10  1  0
 10 11  2  0
 11 12  1  0
 12 13  2  0
  5 14  1  0
 14 15  2  0
 15 16  1  0
 16 17  1  0
 17 18  1  0
 18 19  1  0
 19 20  1  0
 20 21  1  0
 20 22  1  0
 22 23  1  0
 16  3  2  0
 23 17  1  0
 13  8  1  0
  1 24  1  0
  1 25  1  0
  1 26  1  0
  4 27  1  0
  6 28  1  0
  6 29  1  0
  7 30  1  0
  9 31  1  0
 10 32  1  0
 11 33  1  0
 12 34  1  0
 13 35  1  0
 14 36  1  0
 15 37  1  0
 18 38  1  0
 18 39  1  0
 19 40  1  0
 19 41  1  0
 21 42  1  0
 21 43  1  0
 21 44  1  0
 22 45  1  0
 22 46  1  0
 23 47  1  0
 23 48  1  0
M  END
>  <meeko>  (1) 
{"is_sidechain": false}

>  <smiles>  (1) 
COc1cc(CNc2ccccc2)ccc1N1CCN(C)CC1

>  <vina_score>  (1) 
-8.052

>  <job_id>  (1) 
d47b1bd9c3de10ca

$$$$
