
     RDKit          3D

 52 53  0  0  0  0  0  0  0  0999 V2000
   52.7060   76.1290   27.8570 C   0  0  0  0  0  0  0  0  0  0  0  0
   52.9350   77.3430   26.9930 C   0  0  0  0  0  0  0  0  0  0  0  0
   52.5840   77.3330   25.8110 O   0  0  0  0  0  0  0  0  0  0  0  0
   53.5500   78.4430   27.5810 N   0  0  0  0  0  0  0  0  0  0  0  0
   53.6720   79.7460   26.9420 C   0  0  0  0  0  0  0  0  0  0  0  0
   54.9290   79.8590   26.0800 C   0  0  0  0  0  0  0  0  0  0  0  0
   56.1680   80.3020   26.8880 C   0  0  0  0  0  0  0  0  0  0  0  0
   56.5690   79.5220   28.0650 N   0  0  0  0  0  0  0  0  0  0  0  0
   58.0340   79.3890   28.1930 C   0  0  0  0  0  0  0  0  0  0  0  0
   58.6120   80.1620   29.3590 C   0  0  0  0  0  0  0  0  0  0  0  0
   58.2430   79.8560   30.6750 C   0  0  0  0  0  0  0  0  0  0  0  0
   58.7920   80.5620   31.7510 C   0  0  0  0  0  0  0  0  0  0  0  0
   59.7250   81.5820   31.5350 C   0  0  0  0  0  0  0  0  0  0  0  0
   60.2290   82.2430   32.6730 N   0  0  0  0  0  0  0  0  0  0  0  0
   59.8880   83.5040   33.1430 C   0  0  0  0  0  0  0  0  0  0  0  0
   59.0690   84.2700   32.6420 O   0  0  0  0  0  0  0  0  0  0  0  0
   60.6520   83.8820   34.4220 C   0  0  0  0  0  0  0  0  0  0  0  0
   61.8210   83.0240   34.7040 N   0  0  0  0  0  0  0  0  0  0  0  0
   61.8900   82.5810   36.0920 C   0  0  0  0  0  0  0  0  0  0  0  0
   63.0750   83.6580   34.2950 C   0  0  0  0  0  0  0  0  0  0  0  0
   60.1020   81.8820   30.2250 C   0  0  0  0  0  0  0  0  0  0  0  0
   59.5530   81.1770   29.1470 C   0  0  0  0  0  0  0  0  0  0  0  0
   55.9350   78.2010   28.2360 C   0  0  0  0  0  0  0  0  0  0  0  0
   54.4660   78.1870   28.6970 C   0  0  0  0  0  0  0  0  0  0  0  0
   52.7605   76.4178   28.9170 H   0  0  0  0  0  0  0  0  0  0  0  0
   51.7126   75.7082   27.6422 H   0  0  0  0  0  0  0  0  0  0  0  0
   53.4778   75.3752   27.6422 H   0  0  0  0  0  0  0  0  0  0  0  0
   52.7909   79.9102   26.3043 H   0  0  0  0  0  0  0  0  0  0  0  0
   53.7423   80.5031   27.7369 H   0  0  0  0  0  0  0  0  0  0  0  0
   55.1357   78.8773   25.6288 H   0  0  0  0  0  0  0  0  0  0  0  0
   54.7394   80.6265   25.3152 H   0  0  0  0  0  0  0  0  0  0  0  0
   57.0219   80.3003   26.1946 H   0  0  0  0  0  0  0  0  0  0  0  0
   55.8744   81.2762   27.3060 H   0  0  0  0  0  0  0  0  0  0  0  0
   58.2764   78.3244   28.3269 H   0  0  0  0  0  0  0  0  0  0  0  0
   58.4775   79.8064   27.2770 H   0  0  0  0  0  0  0  0  0  0  0  0
   57.5150   79.0534   30.8643 H   0  0  0  0  0  0  0  0  0  0  0  0
   58.4868   80.3124   32.7779 H   0  0  0  0  0  0  0  0  0  0  0  0
   60.8980   81.7220   33.2250 H   0  0  0  0  0  0  0  0  0  0  0  0
   61.0020   84.9199   34.3209 H   0  0  0  0  0  0  0  0  0  0  0  0
   59.9520   83.7485   35.2599 H   0  0  0  0  0  0  0  0  0  0  0  0
   61.7555   83.4448   36.7597 H   0  0  0  0  0  0  0  0  0  0  0  0
   61.0958   81.8439   36.2815 H   0  0  0  0  0  0  0  0  0  0  0  0
   62.8707   82.1203   36.2815 H   0  0  0  0  0  0  0  0  0  0  0  0
   63.6478   83.9476   35.1883 H   0  0  0  0  0  0  0  0  0  0  0  0
   63.6651   82.9499   33.6946 H   0  0  0  0  0  0  0  0  0  0  0  0
   62.8546   84.5530   33.6946 H   0  0  0  0  0  0  0  0  0  0  0  0
   60.8366   82.6791   30.0379 H   0  0  0  0  0  0  0  0  0  0  0  0
   59.8647   81.4235   28.1213 H   0  0  0  0  0  0  0  0  0  0  0  0
   55.9843   77.6811   27.2679 H   0  0  0  0  0  0  0  0  0  0  0  0
   56.4952   77.7176   29.0499 H   0  0  0  0  0  0  0  0  0  0  0  0
   54.2364   77.2018   29.1291 H   0  0  0  0  0  0  0  0  0  0  0  0
   54.3311   78.9833   29.4438 H   0  0  0  0  0  0  0  0  0  0  0  0
  1  2  1  0
  2  3  2  0
  2  4  1  0
  4  5  1  0
  5  6  1  0
  6  7  1  0
  7  8  1  0
  8  9  1  0
  9 10  1  0
 10 11  1  0
 11 12  2  0
 12 13  1  0
 13 14  1  0
 14 15  1  0
 15 16  2  0
 15 17  1  0
 17 18  1  0
 18 19  1  0
 18 20  1  0
 13 21  2  0
 21 22  1  0
  8 23  1  0
 23 24  1  0
 24  4  1  0
 22 10  2  0
  1 25  1  0
  1 26  1  0
  1 27  1  0
  5 28  1  0
  5 29  1  0
  6 30  1  0
  6 31  1  0
  7 32  1  0
  7 33  1  0
  9 34  1  0
  9 35  1  0
 11 36  1  0
 12 37  1  0
 14 38  1  0
 17 39  1  0
 17 40  1  0
 19 41  1  0
 19 42  1  0
 19 43  1  0
 20 44  1  0
 20 45  1  0
 20 46  1  0
 21 47  1  0
 22 48  1  0
 23 49  1  0
 23 50  1  0
 24 51  1  0
 24 52  1  0
M  END
>  <meeko>  (1) 
{"is_sidechain": false}

>  <smiles>  (1) 
CC(=O)N1CCCN(Cc2ccc(NC(=O)CN(C)C)cc2)CC1

>  <vina_score>  (1) 
-5.529

>  <job_id>  (1) 
d50a44facf91ddf0

$$$$
