
     RDKit          3D

 36 39  0  0  0  0  0  0  0  0999 V2000
   62.9800   82.1000   32.0220 O   0  0  0  0  0  0  0  0  0  0  0  0
   62.6920   82.6500   30.9660 C   0  0  0  0  0  0  0  0  0  0  0  0
   61.5120   82.4900   30.2700 N   0  0  0  0  0  0  0  0  0  0  0  0
   60.5150   81.6420   30.7160 C   0  0  0  0  0  0  0  0  0  0  0  0
   60.3440   81.2810   32.0350 N   0  0  0  0  0  0  0  0  0  0  0  0
   59.3110   80.4450   32.2600 N   0  0  0  0  0  0  0  0  0  0  0  0
   58.7940   80.2530   31.0450 C   0  0  0  0  0  0  0  0  0  0  0  0
   57.7240   79.4820   30.7320 N   0  0  0  0  0  0  0  0  0  0  0  0
   57.4320   79.4830   29.3930 C   0  0  0  0  0  0  0  0  0  0  0  0
   56.2640   78.6450   29.0340 C   0  0  0  0  0  0  0  0  0  0  0  0
   55.9820   77.4330   29.6970 C   0  0  0  0  0  0  0  0  0  0  0  0
   54.8760   76.6510   29.3460 C   0  0  0  0  0  0  0  0  0  0  0  0
   54.0330   77.0710   28.3280 C   0  0  0  0  0  0  0  0  0  0  0  0
   52.9670   76.2720   28.0200 O   0  0  0  0  0  0  0  0  0  0  0  0
   54.2800   78.2690   27.6610 C   0  0  0  0  0  0  0  0  0  0  0  0
   53.2310   78.7960   26.3970 Cl  0  0  0  0  0  0  0  0  0  0  0  0
   55.3830   79.0500   28.0120 C   0  0  0  0  0  0  0  0  0  0  0  0
   58.1450   80.2180   28.3950 C   0  0  0  0  0  0  0  0  0  0  0  0
   59.2560   81.0240   28.6870 C   0  0  0  0  0  0  0  0  0  0  0  0
   59.5130   80.9820   30.0480 C   0  0  0  0  0  0  0  0  0  0  0  0
   63.6350   83.6070   30.3360 C   0  0  0  0  0  0  0  0  0  0  0  0
   64.8500   84.1180   31.0750 C   0  0  0  0  0  0  0  0  0  0  0  0
   63.6890   85.0340   30.8300 C   0  0  0  0  0  0  0  0  0  0  0  0
   61.3710   83.0060   29.4110 H   0  0  0  0  0  0  0  0  0  0  0  0
   60.9160   81.5890   32.8190 H   0  0  0  0  0  0  0  0  0  0  0  0
   56.6452   77.0952   30.5070 H   0  0  0  0  0  0  0  0  0  0  0  0
   54.6761   75.7075   29.8750 H   0  0  0  0  0  0  0  0  0  0  0  0
   52.8560   75.6480   28.7620 H   0  0  0  0  0  0  0  0  0  0  0  0
   55.5669   79.9963   27.4822 H   0  0  0  0  0  0  0  0  0  0  0  0
   57.8071   80.1484   27.3505 H   0  0  0  0  0  0  0  0  0  0  0  0
   59.8337   81.6002   27.9493 H   0  0  0  0  0  0  0  0  0  0  0  0
   63.4756   83.1095   29.3680 H   0  0  0  0  0  0  0  0  0  0  0  0
   65.0633   83.7619   32.0937 H   0  0  0  0  0  0  0  0  0  0  0  0
   65.9284   84.1575   30.8619 H   0  0  0  0  0  0  0  0  0  0  0  0
   63.0515   85.3492   31.6692 H   0  0  0  0  0  0  0  0  0  0  0  0
   63.5650   86.0223   30.3632 H   0  0  0  0  0  0  0  0  0  0  0  0
  1  2  2  0
  2  3  1  0
  3  4  1  0
  4  5  1  0
  5  6  1  0
  6  7  2  0
  7  8  1  0
  8  9  2  0
  9 10  1  0
 10 11  1  0
 11 12  2  0
 12 13  1  0
 13 14  1  0
 13 15  2  0
 15 16  1  0
 15 17  1  0
  9 18  1  0
 18 19  2  0
 19 20  1  0
  2 21  1  0
 21 22  1  0
 22 23  1  0
 20  4  2  0
 23 21  1  0
 20  7  1  0
 17 10  2  0
  3 24  1  0
  5 25  1  0
 11 26  1  0
 12 27  1  0
 14 28  1  0
 17 29  1  0
 18 30  1  0
 19 31  1  0
 21 32  1  0
 22 33  1  0
 22 34  1  0
 23 35  1  0
 23 36  1  0
M  END
>  <meeko>  (1) 
{"is_sidechain": false}

>  <smiles>  (1) 
O=C(Nc1[nH]nc2nc(-c3ccc(O)c(Cl)c3)ccc12)C1CC1

>  <vina_score>  (1) 
-7.984

>  <job_id>  (1) 
d50eececa3e35308

$$$$
