
     RDKit          3D

 41 43  0  0  0  0  0  0  0  0999 V2000
   53.6780   78.3170   24.2720 O   0  0  0  0  0  0  0  0  0  0  0  0
   53.3010   79.1910   25.0500 C   0  0  0  0  0  0  0  0  0  0  0  0
   53.2030   78.9820   26.5570 C   0  0  0  0  0  0  0  0  0  0  0  0
   54.5270   79.0120   27.2840 C   0  0  0  0  0  0  0  0  0  0  0  0
   54.7690   78.1540   28.3620 C   0  0  0  0  0  0  0  0  0  0  0  0
   55.9980   78.1830   29.0310 C   0  0  0  0  0  0  0  0  0  0  0  0
   57.0050   79.0760   28.6550 C   0  0  0  0  0  0  0  0  0  0  0  0
   58.2690   79.1160   29.2730 N   0  0  0  0  0  0  0  0  0  0  0  0
   58.9260   80.1190   30.0070 C   0  0  0  0  0  0  0  0  0  0  0  0
   59.6850   81.0770   29.3210 C   0  0  0  0  0  0  0  0  0  0  0  0
   60.3300   82.1120   30.0050 C   0  0  0  0  0  0  0  0  0  0  0  0
   60.2210   82.2050   31.3900 C   0  0  0  0  0  0  0  0  0  0  0  0
   59.4680   81.2640   32.0870 C   0  0  0  0  0  0  0  0  0  0  0  0
   58.8230   80.2320   31.3980 C   0  0  0  0  0  0  0  0  0  0  0  0
   56.7540   79.9340   27.5760 C   0  0  0  0  0  0  0  0  0  0  0  0
   55.5300   79.9080   26.9000 C   0  0  0  0  0  0  0  0  0  0  0  0
   52.9460   80.4490   24.5960 N   0  0  0  0  0  0  0  0  0  0  0  0
   52.5220   81.5880   25.3950 C   0  0  0  0  0  0  0  0  0  0  0  0
   52.5600   82.7620   24.4260 C   0  0  0  0  0  0  0  0  0  0  0  0
   52.2510   82.1080   23.0850 C   0  0  0  0  0  0  0  0  0  0  0  0
   52.9800   80.7750   23.1810 C   0  0  0  0  0  0  0  0  0  0  0  0
   52.5654   79.7761   26.9727 H   0  0  0  0  0  0  0  0  0  0  0  0
   52.7889   77.9738   26.7054 H   0  0  0  0  0  0  0  0  0  0  0  0
   53.9874   77.4512   28.6864 H   0  0  0  0  0  0  0  0  0  0  0  0
   56.1744   77.4907   29.8674 H   0  0  0  0  0  0  0  0  0  0  0  0
   58.8400   78.3020   29.0780 H   0  0  0  0  0  0  0  0  0  0  0  0
   59.7747   81.0136   28.2265 H   0  0  0  0  0  0  0  0  0  0  0  0
   60.9235   82.8527   29.4490 H   0  0  0  0  0  0  0  0  0  0  0  0
   60.7274   83.0180   31.9309 H   0  0  0  0  0  0  0  0  0  0  0  0
   59.3802   81.3324   33.1814 H   0  0  0  0  0  0  0  0  0  0  0  0
   58.2255   79.4977   31.9581 H   0  0  0  0  0  0  0  0  0  0  0  0
   57.5336   80.6406   27.2550 H   0  0  0  0  0  0  0  0  0  0  0  0
   55.3549   80.5969   26.0605 H   0  0  0  0  0  0  0  0  0  0  0  0
   51.5038   81.4350   25.7822 H   0  0  0  0  0  0  0  0  0  0  0  0
   53.1641   81.7473   26.2738 H   0  0  0  0  0  0  0  0  0  0  0  0
   51.7990   83.5131   24.6845 H   0  0  0  0  0  0  0  0  0  0  0  0
   53.5186   83.3014   24.4351 H   0  0  0  0  0  0  0  0  0  0  0  0
   51.1686   81.9589   22.9574 H   0  0  0  0  0  0  0  0  0  0  0  0
   52.5660   82.7144   22.2230 H   0  0  0  0  0  0  0  0  0  0  0  0
   52.4624   80.0043   22.5909 H   0  0  0  0  0  0  0  0  0  0  0  0
   54.0053   80.8271   22.7860 H   0  0  0  0  0  0  0  0  0  0  0  0
  1  2  2  0
  2  3  1  0
  3  4  1  0
  4  5  1  0
  5  6  2  0
  6  7  1  0
  7  8  1  0
  8  9  1  0
  9 10  2  0
 10 11  1  0
 11 12  2  0
 12 13  1  0
 13 14  2  0
  7 15  2  0
 15 16  1  0
  2 17  1  0
 17 18  1  0
 18 19  1  0
 19 20  1  0
 20 21  1  0
 16  4  2  0
 21 17  1  0
 14  9  1  0
  3 22  1  0
  3 23  1  0
  5 24  1  0
  6 25  1  0
  8 26  1  0
 10 27  1  0
 11 28  1  0
 12 29  1  0
 13 30  1  0
 14 31  1  0
 15 32  1  0
 16 33  1  0
 18 34  1  0
 18 35  1  0
 19 36  1  0
 19 37  1  0
 20 38  1  0
 20 39  1  0
 21 40  1  0
 21 41  1  0
M  END
>  <meeko>  (1) 
{"is_sidechain": false}

>  <smiles>  (1) 
O=C(Cc1ccc(Nc2ccccc2)cc1)N1CCCC1

>  <vina_score>  (1) 
-8.447

>  <job_id>  (1) 
d60dec5dd6815776

$$$$
