
     RDKit          3D

 69 71  0  0  0  0  0  0  0  0999 V2000
   53.1440   81.6310   23.9280 C   0  0  0  0  0  0  0  0  0  0  0  0
   53.3360   80.4070   24.7460 C   0  0  0  0  0  0  0  0  0  0  0  0
   52.9320   79.2140   24.3620 N   0  0  0  0  0  0  0  0  0  0  0  0
   53.3110   78.3540   25.3470 C   0  0  0  0  0  0  0  0  0  0  0  0
   53.9730   79.0070   26.3690 C   0  0  0  0  0  0  0  0  0  0  0  0
   54.5760   78.4440   27.5740 C   0  0  0  0  0  0  0  0  0  0  0  0
   55.8620   78.8070   27.7910 N   0  0  0  0  0  0  0  0  0  0  0  0
   56.4840   78.2930   28.8680 C   0  0  0  0  0  0  0  0  0  0  0  0
   57.8030   78.7030   29.0280 N   0  0  0  0  0  0  0  0  0  0  0  0
   58.4060   79.8600   29.5300 C   0  0  0  0  0  0  0  0  0  0  0  0
   58.3460   80.1010   30.9130 C   0  0  0  0  0  0  0  0  0  0  0  0
   58.9420   81.2300   31.4930 C   0  0  0  0  0  0  0  0  0  0  0  0
   59.6180   82.1520   30.6940 C   0  0  0  0  0  0  0  0  0  0  0  0
   60.2840   83.3730   31.2380 C   0  0  0  0  0  0  0  0  0  0  0  0
   59.7440   84.4690   31.0770 O   0  0  0  0  0  0  0  0  0  0  0  0
   61.6260   83.2670   31.9550 C   0  0  0  0  0  0  0  0  0  0  0  0
   62.7130   83.9130   31.0790 C   0  0  0  0  0  0  0  0  0  0  0  0
   63.4540   82.9410   30.2740 N   0  0  0  0  0  0  0  0  0  0  0  0
   64.6690   81.9380   31.2670 Br  0  0  0  0  0  0  0  0  0  0  0  0
   61.5290   83.9150   33.3470 C   0  0  0  0  0  0  0  0  0  0  0  0
   62.4360   83.2180   34.3480 C   0  0  0  0  0  0  0  0  0  0  0  0
   63.5860   83.6110   34.5570 O   0  0  0  0  0  0  0  0  0  0  0  0
   61.8590   82.0290   35.1270 C   0  0  0  0  0  0  0  0  0  0  0  0
   60.4350   82.0900   35.0880 O   0  0  0  0  0  0  0  0  0  0  0  0
   62.3480   80.6730   34.5830 C   0  0  0  0  0  0  0  0  0  0  0  0
   61.1850   79.8570   34.0110 C   0  0  0  0  0  0  0  0  0  0  0  0
   63.0610   79.8570   35.6660 C   0  0  0  0  0  0  0  0  0  0  0  0
   59.7000   81.9150   29.3170 C   0  0  0  0  0  0  0  0  0  0  0  0
   59.1030   80.7840   28.7470 C   0  0  0  0  0  0  0  0  0  0  0  0
   55.8860   77.4540   29.7280 N   0  0  0  0  0  0  0  0  0  0  0  0
   54.6080   77.1060   29.4730 C   0  0  0  0  0  0  0  0  0  0  0  0
   53.9010   77.5710   28.3980 C   0  0  0  0  0  0  0  0  0  0  0  0
   52.6340   77.1940   28.1890 F   0  0  0  0  0  0  0  0  0  0  0  0
   53.9350   80.3480   25.9940 N   0  0  0  0  0  0  0  0  0  0  0  0
   54.4110   81.4680   26.8070 C   0  0  0  0  0  0  0  0  0  0  0  0
   53.3110   82.4290   27.2680 C   0  0  0  0  0  0  0  0  0  0  0  0
   55.5660   82.2130   26.1360 C   0  0  0  0  0  0  0  0  0  0  0  0
   53.0080   82.4978   24.5915 H   0  0  0  0  0  0  0  0  0  0  0  0
   54.0282   81.7902   23.2932 H   0  0  0  0  0  0  0  0  0  0  0  0
   52.2536   81.5119   23.2932 H   0  0  0  0  0  0  0  0  0  0  0  0
   53.1143   77.2718   25.3312 H   0  0  0  0  0  0  0  0  0  0  0  0
   58.4120   77.9260   28.8180 H   0  0  0  0  0  0  0  0  0  0  0  0
   57.8170   79.3843   31.5584 H   0  0  0  0  0  0  0  0  0  0  0  0
   58.8763   81.3887   32.5795 H   0  0  0  0  0  0  0  0  0  0  0  0
   61.8995   82.2130   32.1110 H   0  0  0  0  0  0  0  0  0  0  0  0
   62.2336   84.6354   30.4020 H   0  0  0  0  0  0  0  0  0  0  0  0
   63.4338   84.3972   31.7543 H   0  0  0  0  0  0  0  0  0  0  0  0
   62.8000   82.3320   29.7720 H   0  0  0  0  0  0  0  0  0  0  0  0
   61.8250   84.9717   33.2712 H   0  0  0  0  0  0  0  0  0  0  0  0
   60.4908   83.8246   33.6992 H   0  0  0  0  0  0  0  0  0  0  0  0
   62.2157   82.1018   36.1650 H   0  0  0  0  0  0  0  0  0  0  0  0
   60.1030   81.2060   35.3310 H   0  0  0  0  0  0  0  0  0  0  0  0
   63.0651   80.8904   33.7777 H   0  0  0  0  0  0  0  0  0  0  0  0
   60.5895   79.4392   34.8361 H   0  0  0  0  0  0  0  0  0  0  0  0
   60.5492   80.5081   33.3930 H   0  0  0  0  0  0  0  0  0  0  0  0
   61.5810   79.0377   33.3930 H   0  0  0  0  0  0  0  0  0  0  0  0
   62.7493   80.2138   36.6587 H   0  0  0  0  0  0  0  0  0  0  0  0
   62.7965   78.7947   35.5584 H   0  0  0  0  0  0  0  0  0  0  0  0
   64.1492   79.9766   35.5584 H   0  0  0  0  0  0  0  0  0  0  0  0
   60.2401   82.6261   28.6747 H   0  0  0  0  0  0  0  0  0  0  0  0
   59.1842   80.6197   27.6624 H   0  0  0  0  0  0  0  0  0  0  0  0
   54.1083   76.4124   30.1653 H   0  0  0  0  0  0  0  0  0  0  0  0
   54.7939   81.0041   27.7279 H   0  0  0  0  0  0  0  0  0  0  0  0
   53.2827   82.4537   28.3674 H   0  0  0  0  0  0  0  0  0  0  0  0
   53.5210   83.4381   26.8839 H   0  0  0  0  0  0  0  0  0  0  0  0
   52.3392   82.0854   26.8839 H   0  0  0  0  0  0  0  0  0  0  0  0
   56.2252   82.6382   26.9071 H   0  0  0  0  0  0  0  0  0  0  0  0
   56.1386   81.5135   25.5092 H   0  0  0  0  0  0  0  0  0  0  0  0
   55.1649   83.0230   25.5092 H   0  0  0  0  0  0  0  0  0  0  0  0
  1  2  1  0
  2  3  2  0
  3  4  1  0
  4  5  2  0
  5  6  1  0
  6  7  2  0
  7  8  1  0
  8  9  1  0
  9 10  1  0
 10 11  1  0
 11 12  2  0
 12 13  1  0
 13 14  1  0
 14 15  2  0
 14 16  1  0
 16 17  1  0
 17 18  1  0
 18 19  1  0
 16 20  1  0
 20 21  1  0
 21 22  2  0
 21 23  1  0
 23 24  1  0
 23 25  1  0
 25 26  1  0
 25 27  1  0
 13 28  2  0
 28 29  1  0
  8 30  2  0
 30 31  1  0
 31 32  2  0
 32 33  1  0
  5 34  1  0
 34 35  1  0
 35 36  1  0
 35 37  1  0
 34  2  1  0
 32  6  1  0
 29 10  2  0
  1 38  1  0
  1 39  1  0
  1 40  1  0
  4 41  1  0
  9 42  1  0
 11 43  1  0
 12 44  1  0
 16 45  1  0
 17 46  1  0
 17 47  1  0
 18 48  1  0
 20 49  1  0
 20 50  1  0
 23 51  1  0
 24 52  1  0
 25 53  1  0
 26 54  1  0
 26 55  1  0
 26 56  1  0
 27 57  1  0
 27 58  1  0
 27 59  1  0
 28 60  1  0
 29 61  1  0
 31 62  1  0
 35 63  1  0
 36 64  1  0
 36 65  1  0
 36 66  1  0
 37 67  1  0
 37 68  1  0
 37 69  1  0
M  END
>  <meeko>  (1) 
{"is_sidechain": false}

>  <smiles>  (1) 
Cc1ncc(-c2nc(Nc3ccc(C(=O)C(CNBr)CC(=O)C(O)C(C)C)cc3)ncc2F)n1C(C)C

>  <vina_score>  (1) 
-8.507

>  <job_id>  (1) 
d6783a32302eee9d

$$$$
