
     RDKit          3D

 55 57  0  0  0  0  0  0  0  0999 V2000
   62.5740   80.5750   34.0100 C   0  0  0  0  0  0  0  0  0  0  0  0
   62.4350   82.0690   34.2600 C   0  0  0  0  0  0  0  0  0  0  0  0
   62.3500   82.8940   32.9780 C   0  0  0  0  0  0  0  0  0  0  0  0
   60.9950   83.0970   32.5930 O   0  0  0  0  0  0  0  0  0  0  0  0
   60.3610   82.2160   31.7510 C   0  0  0  0  0  0  0  0  0  0  0  0
   60.6380   81.9490   30.4630 C   0  0  0  0  0  0  0  0  0  0  0  0
   59.9400   81.0500   29.6970 N   0  0  0  0  0  0  0  0  0  0  0  0
   58.9200   80.2660   30.1800 C   0  0  0  0  0  0  0  0  0  0  0  0
   58.3440   79.3560   29.3220 N   0  0  0  0  0  0  0  0  0  0  0  0
   56.9800   78.8570   29.3960 C   0  0  0  0  0  0  0  0  0  0  0  0
   56.2320   79.2720   28.1540 C   0  0  0  0  0  0  0  0  0  0  0  0
   54.9830   78.7160   27.8480 C   0  0  0  0  0  0  0  0  0  0  0  0
   54.2820   79.1190   26.7060 C   0  0  0  0  0  0  0  0  0  0  0  0
   54.8100   80.0880   25.8520 C   0  0  0  0  0  0  0  0  0  0  0  0
   54.1700   80.5450   24.6810 N   0  0  0  0  0  0  0  0  0  0  0  0
   53.2030   81.5320   24.5750 C   0  0  0  0  0  0  0  0  0  0  0  0
   52.7690   82.2160   25.4950 O   0  0  0  0  0  0  0  0  0  0  0  0
   52.7200   81.7220   23.1340 C   0  0  0  0  0  0  0  0  0  0  0  0
   51.7860   80.5820   22.7090 C   0  0  0  0  0  0  0  0  0  0  0  0
   51.2090   80.8460   21.3250 C   0  0  0  0  0  0  0  0  0  0  0  0
   50.5480   82.1060   21.2790 O   0  0  0  0  0  0  0  0  0  0  0  0
   51.4290   83.1930   21.5570 C   0  0  0  0  0  0  0  0  0  0  0  0
   52.0070   83.0690   22.9580 C   0  0  0  0  0  0  0  0  0  0  0  0
   56.0540   80.6500   26.1610 C   0  0  0  0  0  0  0  0  0  0  0  0
   56.7570   80.2510   27.3020 C   0  0  0  0  0  0  0  0  0  0  0  0
   58.5420   80.4240   31.4620 C   0  0  0  0  0  0  0  0  0  0  0  0
   59.2200   81.4230   32.3300 C   0  0  0  0  0  0  0  0  0  0  0  0
   58.8390   81.5700   33.4900 O   0  0  0  0  0  0  0  0  0  0  0  0
   62.6233   80.0452   34.9727 H   0  0  0  0  0  0  0  0  0  0  0  0
   61.7053   80.2165   33.4382 H   0  0  0  0  0  0  0  0  0  0  0  0
   63.4939   80.3829   33.4382 H   0  0  0  0  0  0  0  0  0  0  0  0
   61.5202   82.2406   34.8462 H   0  0  0  0  0  0  0  0  0  0  0  0
   63.3394   82.3938   34.7953 H   0  0  0  0  0  0  0  0  0  0  0  0
   62.8267   83.8709   33.1463 H   0  0  0  0  0  0  0  0  0  0  0  0
   62.8655   82.3480   32.1742 H   0  0  0  0  0  0  0  0  0  0  0  0
   61.4765   82.4847   29.9940 H   0  0  0  0  0  0  0  0  0  0  0  0
   60.3320   80.7790   28.8020 H   0  0  0  0  0  0  0  0  0  0  0  0
   58.6600   79.4810   28.3640 H   0  0  0  0  0  0  0  0  0  0  0  0
   56.9932   77.7594   29.4680 H   0  0  0  0  0  0  0  0  0  0  0  0
   56.4818   79.2735   30.2839 H   0  0  0  0  0  0  0  0  0  0  0  0
   54.5488   77.9545   28.5126 H   0  0  0  0  0  0  0  0  0  0  0  0
   53.3049   78.6674   26.4792 H   0  0  0  0  0  0  0  0  0  0  0  0
   54.4780   80.1130   23.8200 H   0  0  0  0  0  0  0  0  0  0  0  0
   53.6109   81.7094   22.4890 H   0  0  0  0  0  0  0  0  0  0  0  0
   52.3524   79.6392   22.6902 H   0  0  0  0  0  0  0  0  0  0  0  0
   50.9582   80.5158   23.4303 H   0  0  0  0  0  0  0  0  0  0  0  0
   52.0256   80.8412   20.5880 H   0  0  0  0  0  0  0  0  0  0  0  0
   50.4770   80.0579   21.0947 H   0  0  0  0  0  0  0  0  0  0  0  0
   52.2504   83.1887   20.8254 H   0  0  0  0  0  0  0  0  0  0  0  0
   50.8635   84.1340   21.4888 H   0  0  0  0  0  0  0  0  0  0  0  0
   52.7275   83.8833   23.1246 H   0  0  0  0  0  0  0  0  0  0  0  0
   51.1849   83.1314   23.6862 H   0  0  0  0  0  0  0  0  0  0  0  0
   56.4841   81.4152   25.4980 H   0  0  0  0  0  0  0  0  0  0  0  0
   57.7299   80.7098   27.5319 H   0  0  0  0  0  0  0  0  0  0  0  0
   57.7259   79.8099   31.8705 H   0  0  0  0  0  0  0  0  0  0  0  0
  1  2  1  0
  2  3  1  0
  3  4  1  0
  4  5  1  0
  5  6  2  0
  6  7  1  0
  7  8  1  0
  8  9  1  0
  9 10  1  0
 10 11  1  0
 11 12  1  0
 12 13  2  0
 13 14  1  0
 14 15  1  0
 15 16  1  0
 16 17  2  0
 16 18  1  0
 18 19  1  0
 19 20  1  0
 20 21  1  0
 21 22  1  0
 22 23  1  0
 14 24  2  0
 24 25  1  0
  8 26  2  0
 26 27  1  0
 27 28  2  0
 27  5  1  0
 25 11  2  0
 23 18  1  0
  1 29  1  0
  1 30  1  0
  1 31  1  0
  2 32  1  0
  2 33  1  0
  3 34  1  0
  3 35  1  0
  6 36  1  0
  7 37  1  0
  9 38  1  0
 10 39  1  0
 10 40  1  0
 12 41  1  0
 13 42  1  0
 15 43  1  0
 18 44  1  0
 19 45  1  0
 19 46  1  0
 20 47  1  0
 20 48  1  0
 22 49  1  0
 22 50  1  0
 23 51  1  0
 23 52  1  0
 24 53  1  0
 25 54  1  0
 26 55  1  0
M  END
>  <meeko>  (1) 
{"is_sidechain": false}

>  <smiles>  (1) 
CCCOc1c[nH]c(NCc2ccc(NC(=O)C3CCOCC3)cc2)cc1=O

>  <vina_score>  (1) 
-7.676

>  <job_id>  (1) 
d68080c42c3a851c

$$$$
