
     RDKit          3D

 52 53  0  0  0  0  0  0  0  0999 V2000
   53.6910   78.5030   24.2830 C   0  0  0  0  0  0  0  0  0  0  0  0
   53.5570   79.9200   24.8260 C   0  0  1  0  0  0  0  0  0  0  0  0
   52.1580   80.2340   24.7700 O   0  0  0  0  0  0  0  0  0  0  0  0
   54.0990   80.0990   26.2670 C   0  0  1  0  0  0  0  0  0  0  0  0
   53.7010   81.4370   26.8900 C   0  0  0  0  0  0  0  0  0  0  0  0
   53.5110   79.0960   27.1280 O   0  0  0  0  0  0  0  0  0  0  0  0
   54.4050   78.3410   27.8490 C   0  0  0  0  0  0  0  0  0  0  0  0
   55.6470   78.8360   28.0180 N   0  0  0  0  0  0  0  0  0  0  0  0
   56.5330   78.0750   28.6780 C   0  0  0  0  0  0  0  0  0  0  0  0
   57.7910   78.6440   28.8400 N   0  0  0  0  0  0  0  0  0  0  0  0
   58.2840   79.7130   29.5950 C   0  0  0  0  0  0  0  0  0  0  0  0
   58.0830   79.8550   30.9730 C   0  0  0  0  0  0  0  0  0  0  0  0
   58.6060   80.9460   31.6780 C   0  0  0  0  0  0  0  0  0  0  0  0
   59.3510   81.9090   30.9990 C   0  0  0  0  0  0  0  0  0  0  0  0
   60.0000   83.2950   31.9000 S   0  0  0  0  0  0  0  0  0  0  0  0
   59.9640   84.4580   31.0210 O   0  0  0  0  0  0  0  0  0  0  0  0
   59.3130   83.3380   33.1830 O   0  0  0  0  0  0  0  0  0  0  0  0
   62.1190   82.8190   32.2480 S   0  0  0  0  0  0  0  0  0  0  0  0
   62.7110   83.9270   32.9770 O   0  0  0  0  0  0  0  0  0  0  0  0
   62.1650   81.4660   32.7790 O   0  0  0  0  0  0  0  0  0  0  0  0
   62.9030   82.7100   30.6710 N   0  0  0  0  0  0  0  0  0  0  0  0
   63.7940   81.5640   30.6500 N   0  0  0  0  0  0  0  0  0  0  0  0
   65.1790   81.8400   31.0200 C   0  0  0  0  0  0  0  0  0  0  0  0
   66.0370   80.9830   30.4450 F   0  0  0  0  0  0  0  0  0  0  0  0
   65.3070   81.7470   32.3590 F   0  0  0  0  0  0  0  0  0  0  0  0
   65.5000   83.1020   30.6600 F   0  0  0  0  0  0  0  0  0  0  0  0
   59.5590   81.8030   29.6260 C   0  0  0  0  0  0  0  0  0  0  0  0
   59.0300   80.7090   28.9370 C   0  0  0  0  0  0  0  0  0  0  0  0
   56.2320   76.8540   29.1390 N   0  0  0  0  0  0  0  0  0  0  0  0
   54.9870   76.3870   28.9170 C   0  0  0  0  0  0  0  0  0  0  0  0
   54.0150   77.0960   28.2600 C   0  0  0  0  0  0  0  0  0  0  0  0
   52.6550   76.5610   28.0220 C   0  0  0  0  0  0  0  0  0  0  0  0
   52.2950   76.5940   26.7070 F   0  0  0  0  0  0  0  0  0  0  0  0
   51.6850   77.2530   28.6800 F   0  0  0  0  0  0  0  0  0  0  0  0
   52.5180   75.2600   28.4000 F   0  0  0  0  0  0  0  0  0  0  0  0
   53.7581   77.7939   25.1213 H   0  0  0  0  0  0  0  0  0  0  0  0
   52.8117   78.2614   23.6678 H   0  0  0  0  0  0  0  0  0  0  0  0
   54.6000   78.4305   23.6678 H   0  0  0  0  0  0  0  0  0  0  0  0
   54.1702   80.5999   24.2163 H   0  0  0  0  0  0  0  0  0  0  0  0
   51.6760   79.4040   24.9600 H   0  0  0  0  0  0  0  0  0  0  0  0
   55.1938   80.0274   26.1884 H   0  0  0  0  0  0  0  0  0  0  0  0
   53.7260   81.3528   27.9865 H   0  0  0  0  0  0  0  0  0  0  0  0
   54.4061   82.2166   26.5659 H   0  0  0  0  0  0  0  0  0  0  0  0
   52.6844   81.7044   26.5659 H   0  0  0  0  0  0  0  0  0  0  0  0
   58.4600   78.1470   28.2690 H   0  0  0  0  0  0  0  0  0  0  0  0
   57.5019   79.0934   31.5135 H   0  0  0  0  0  0  0  0  0  0  0  0
   58.4303   81.0425   32.7596 H   0  0  0  0  0  0  0  0  0  0  0  0
   62.1540   82.6380   29.9620 H   0  0  0  0  0  0  0  0  0  0  0  0
   63.4670   80.9080   31.3590 H   0  0  0  0  0  0  0  0  0  0  0  0
   60.1337   82.5726   29.0898 H   0  0  0  0  0  0  0  0  0  0  0  0
   59.2006   80.6238   27.8537 H   0  0  0  0  0  0  0  0  0  0  0  0
   54.7371   75.3805   29.2837 H   0  0  0  0  0  0  0  0  0  0  0  0
  1  2  1  0
  2  3  1  0
  2  4  1  0
  4  5  1  0
  4  6  1  0
  6  7  1  0
  7  8  2  0
  8  9  1  0
  9 10  1  0
 10 11  1  0
 11 12  1  0
 12 13  2  0
 13 14  1  0
 14 15  1  0
 15 16  2  0
 15 17  2  0
 15 18  1  0
 18 19  2  0
 18 20  2  0
 18 21  1  0
 21 22  1  0
 22 23  1  0
 23 24  1  0
 23 25  1  0
 23 26  1  0
 14 27  2  0
 27 28  1  0
  9 29  2  0
 29 30  1  0
 30 31  2  0
 31 32  1  0
 32 33  1  0
 32 34  1  0
 32 35  1  0
 31  7  1  0
 28 11  2  0
  1 36  1  0
  1 37  1  0
  1 38  1  0
  2 39  1  6
  3 40  1  0
  4 41  1  6
  5 42  1  0
  5 43  1  0
  5 44  1  0
 10 45  1  0
 12 46  1  0
 13 47  1  0
 21 48  1  0
 22 49  1  0
 27 50  1  0
 28 51  1  0
 30 52  1  0
M  END
>  <meeko>  (1) 
{"is_sidechain": false}

>  <smiles>  (1) 
C[C@@H](O)[C@@H](C)Oc1nc(Nc2ccc(S(=O)(=O)S(=O)(=O)NNC(F)(F)F)cc2)ncc1C(F)(F)F

>  <vina_score>  (1) 
-8.740

>  <job_id>  (1) 
d698a5db849e5361

$$$$
