
     RDKit          3D

 34 35  0  0  0  0  0  0  0  0999 V2000
   52.6740   77.2300   28.0200 C   0  0  0  0  0  0  0  0  0  0  0  0
   54.0310   77.8640   28.1080 C   0  0  0  0  0  0  0  0  0  0  0  0
   54.9120   77.5160   29.1350 C   0  0  0  0  0  0  0  0  0  0  0  0
   56.1650   78.1210   29.2230 C   0  0  0  0  0  0  0  0  0  0  0  0
   56.5440   79.0940   28.2940 C   0  0  0  0  0  0  0  0  0  0  0  0
   58.1280   79.7710   28.4430 Cl  0  0  0  0  0  0  0  0  0  0  0  0
   55.6670   79.4830   27.2700 C   0  0  0  0  0  0  0  0  0  0  0  0
   56.0190   80.5190   26.2280 C   0  0  0  0  0  0  0  0  0  0  0  0
   54.9660   81.6100   26.1130 C   0  0  0  0  0  0  0  0  0  0  0  0
   54.9090   82.5180   26.9360 O   0  0  0  0  0  0  0  0  0  0  0  0
   54.1760   81.4810   24.9810 N   0  0  0  0  0  0  0  0  0  0  0  0
   52.9990   82.1710   24.7510 C   0  0  0  0  0  0  0  0  0  0  0  0
   52.5260   83.0490   25.4600 O   0  0  0  0  0  0  0  0  0  0  0  0
   52.2520   81.7510   23.5320 C   0  0  0  0  0  0  0  0  0  0  0  0
   50.9080   81.3590   23.5810 C   0  0  0  0  0  0  0  0  0  0  0  0
   50.2480   80.9820   22.4080 C   0  0  0  0  0  0  0  0  0  0  0  0
   50.9290   80.9860   21.1900 C   0  0  0  0  0  0  0  0  0  0  0  0
   52.2720   81.3570   21.1400 C   0  0  0  0  0  0  0  0  0  0  0  0
   52.9350   81.7340   22.3090 C   0  0  0  0  0  0  0  0  0  0  0  0
   54.4110   78.8520   27.1890 C   0  0  0  0  0  0  0  0  0  0  0  0
   52.2873   77.0493   29.0338 H   0  0  0  0  0  0  0  0  0  0  0  0
   51.9898   77.9017   27.4808 H   0  0  0  0  0  0  0  0  0  0  0  0
   52.7501   76.2742   27.4808 H   0  0  0  0  0  0  0  0  0  0  0  0
   54.6155   76.7609   29.8779 H   0  0  0  0  0  0  0  0  0  0  0  0
   56.8580   77.8314   30.0267 H   0  0  0  0  0  0  0  0  0  0  0  0
   56.9786   80.9822   26.5011 H   0  0  0  0  0  0  0  0  0  0  0  0
   56.0789   80.0083   25.2556 H   0  0  0  0  0  0  0  0  0  0  0  0
   54.3370   80.6580   24.4170 H   0  0  0  0  0  0  0  0  0  0  0  0
   50.3725   81.3479   24.5418 H   0  0  0  0  0  0  0  0  0  0  0  0
   49.1904   80.6818   22.4450 H   0  0  0  0  0  0  0  0  0  0  0  0
   50.4051   80.6958   20.2673 H   0  0  0  0  0  0  0  0  0  0  0  0
   52.8088   81.3526   20.1799 H   0  0  0  0  0  0  0  0  0  0  0  0
   53.9968   82.0186   22.2698 H   0  0  0  0  0  0  0  0  0  0  0  0
   53.7138   79.1401   26.3884 H   0  0  0  0  0  0  0  0  0  0  0  0
  1  2  1  0
  2  3  1  0
  3  4  2  0
  4  5  1  0
  5  6  1  0
  5  7  2  0
  7  8  1  0
  8  9  1  0
  9 10  2  0
  9 11  1  0
 11 12  1  0
 12 13  2  0
 12 14  1  0
 14 15  2  0
 15 16  1  0
 16 17  2  0
 17 18  1  0
 18 19  2  0
  7 20  1  0
 20  2  2  0
 19 14  1  0
  1 21  1  0
  1 22  1  0
  1 23  1  0
  3 24  1  0
  4 25  1  0
  8 26  1  0
  8 27  1  0
 11 28  1  0
 15 29  1  0
 16 30  1  0
 17 31  1  0
 18 32  1  0
 19 33  1  0
 20 34  1  0
M  END
>  <meeko>  (1) 
{"is_sidechain": false}

>  <smiles>  (1) 
Cc1ccc(Cl)c(CC(=O)NC(=O)c2ccccc2)c1

>  <vina_score>  (1) 
-7.751

>  <job_id>  (1) 
d6b5b52ecf4bcf66

$$$$
