
     RDKit          3D

 41 42  0  0  0  0  0  0  0  0999 V2000
   52.3800   80.8200   24.6830 C   0  0  0  0  0  0  0  0  0  0  0  0
   53.1340   79.8120   25.4070 N   0  0  0  0  0  0  0  0  0  0  0  0
   53.6930   78.7320   24.6030 C   0  0  0  0  0  0  0  0  0  0  0  0
   53.5070   80.0900   26.7210 C   0  0  0  0  0  0  0  0  0  0  0  0
   53.3100   81.1730   27.2690 O   0  0  0  0  0  0  0  0  0  0  0  0
   54.1540   79.0300   27.5240 C   0  0  0  0  0  0  0  0  0  0  0  0
   53.4090   77.9560   28.0160 C   0  0  0  0  0  0  0  0  0  0  0  0
   54.0470   76.9780   28.7710 C   0  0  0  0  0  0  0  0  0  0  0  0
   55.4140   77.0900   29.0550 C   0  0  0  0  0  0  0  0  0  0  0  0
   56.1620   78.1960   28.6260 C   0  0  0  0  0  0  0  0  0  0  0  0
   57.5380   78.3260   28.8340 N   0  0  0  0  0  0  0  0  0  0  0  0
   58.2260   79.5220   28.3650 C   0  0  0  0  0  0  0  0  0  0  0  0
   58.7550   80.2890   29.5550 C   0  0  0  0  0  0  0  0  0  0  0  0
   59.6670   81.3390   29.3850 C   0  0  0  0  0  0  0  0  0  0  0  0
   60.1610   82.0340   30.4910 C   0  0  0  0  0  0  0  0  0  0  0  0
   59.7640   81.6830   31.7880 C   0  0  0  0  0  0  0  0  0  0  0  0
   60.2740   82.4540   32.9750 C   0  0  0  0  0  0  0  0  0  0  0  0
   59.3100   82.4640   34.0200 O   0  0  0  0  0  0  0  0  0  0  0  0
   58.8500   80.6370   31.9590 C   0  0  0  0  0  0  0  0  0  0  0  0
   58.3550   79.9420   30.8540 C   0  0  0  0  0  0  0  0  0  0  0  0
   55.5140   79.1520   27.8310 C   0  0  0  0  0  0  0  0  0  0  0  0
   51.8799   81.4886   25.3992 H   0  0  0  0  0  0  0  0  0  0  0  0
   53.0637   81.4055   24.0507 H   0  0  0  0  0  0  0  0  0  0  0  0
   51.6253   80.3295   24.0507 H   0  0  0  0  0  0  0  0  0  0  0  0
   54.0965   77.9524   25.2659 H   0  0  0  0  0  0  0  0  0  0  0  0
   52.9045   78.3015   23.9682 H   0  0  0  0  0  0  0  0  0  0  0  0
   54.4998   79.1272   23.9682 H   0  0  0  0  0  0  0  0  0  0  0  0
   52.3310   77.8847   27.8088 H   0  0  0  0  0  0  0  0  0  0  0  0
   53.4772   76.1150   29.1458 H   0  0  0  0  0  0  0  0  0  0  0  0
   55.9117   76.2931   29.6270 H   0  0  0  0  0  0  0  0  0  0  0  0
   58.0410   77.4770   28.5820 H   0  0  0  0  0  0  0  0  0  0  0  0
   59.0626   79.2331   27.7119 H   0  0  0  0  0  0  0  0  0  0  0  0
   57.5254   80.1539   27.7994 H   0  0  0  0  0  0  0  0  0  0  0  0
   59.9962   81.6179   28.3732 H   0  0  0  0  0  0  0  0  0  0  0  0
   60.8676   82.8639   30.3426 H   0  0  0  0  0  0  0  0  0  0  0  0
   61.1984   81.9834   33.3411 H   0  0  0  0  0  0  0  0  0  0  0  0
   60.4703   83.4911   32.6652 H   0  0  0  0  0  0  0  0  0  0  0  0
   59.1040   81.5390   34.2400 H   0  0  0  0  0  0  0  0  0  0  0  0
   58.5194   80.3606   32.9711 H   0  0  0  0  0  0  0  0  0  0  0  0
   57.6451   79.1151   31.0033 H   0  0  0  0  0  0  0  0  0  0  0  0
   56.0826   80.0100   27.4431 H   0  0  0  0  0  0  0  0  0  0  0  0
  1  2  1  0
  2  3  1  0
  2  4  1  0
  4  5  2  0
  4  6  1  0
  6  7  1  0
  7  8  2  0
  8  9  1  0
  9 10  2  0
 10 11  1  0
 11 12  1  0
 12 13  1  0
 13 14  1  0
 14 15  2  0
 15 16  1  0
 16 17  1  0
 17 18  1  0
 16 19  2  0
 19 20  1  0
 10 21  1  0
 21  6  2  0
 20 13  2  0
  1 22  1  0
  1 23  1  0
  1 24  1  0
  3 25  1  0
  3 26  1  0
  3 27  1  0
  7 28  1  0
  8 29  1  0
  9 30  1  0
 11 31  1  0
 12 32  1  0
 12 33  1  0
 14 34  1  0
 15 35  1  0
 17 36  1  0
 17 37  1  0
 18 38  1  0
 19 39  1  0
 20 40  1  0
 21 41  1  0
M  END
>  <meeko>  (1) 
{"is_sidechain": false}

>  <smiles>  (1) 
CN(C)C(=O)c1cccc(NCc2ccc(CO)cc2)c1

>  <vina_score>  (1) 
-7.958

>  <job_id>  (1) 
d6c5894ef0c6692e

$$$$
