
     RDKit          3D

 38 39  0  0  0  0  0  0  0  0999 V2000
   58.5130   80.1830   30.8830 C   0  0  0  0  0  0  0  0  0  0  0  0
   58.5660   79.4880   29.5310 C   0  0  0  0  0  0  0  0  0  0  0  0
   57.3020   78.8050   29.2850 N   0  0  0  0  0  0  0  0  0  0  0  0
   56.4460   79.2750   28.2810 C   0  0  0  0  0  0  0  0  0  0  0  0
   56.8120   80.2310   27.3330 C   0  0  0  0  0  0  0  0  0  0  0  0
   55.9340   80.6050   26.3080 C   0  0  0  0  0  0  0  0  0  0  0  0
   54.6680   80.0130   26.1790 C   0  0  0  0  0  0  0  0  0  0  0  0
   53.7910   80.4330   25.0790 C   0  0  0  0  0  0  0  0  0  0  0  0
   53.3310   79.4980   24.1360 C   0  0  0  0  0  0  0  0  0  0  0  0
   52.4980   79.8920   23.0870 C   0  0  0  0  0  0  0  0  0  0  0  0
   52.1130   81.2310   22.9820 C   0  0  0  0  0  0  0  0  0  0  0  0
   51.0610   81.7290   21.6450 S   0  0  0  0  0  0  0  0  0  0  0  0
   49.5370   81.3560   22.2610 N   0  0  0  0  0  0  0  0  0  0  0  0
   51.0950   83.1700   21.5440 O   0  0  0  0  0  0  0  0  0  0  0  0
   51.3100   80.8640   20.5190 O   0  0  0  0  0  0  0  0  0  0  0  0
   52.5640   82.1790   23.9030 C   0  0  0  0  0  0  0  0  0  0  0  0
   53.3960   81.7740   24.9490 C   0  0  0  0  0  0  0  0  0  0  0  0
   54.2950   79.0210   27.1070 C   0  0  0  0  0  0  0  0  0  0  0  0
   52.9670   78.3180   27.0210 C   0  0  0  0  0  0  0  0  0  0  0  0
   55.1970   78.6560   28.1270 C   0  0  0  0  0  0  0  0  0  0  0  0
   58.5703   79.4314   31.6841 H   0  0  0  0  0  0  0  0  0  0  0  0
   59.3607   80.8784   30.9713 H   0  0  0  0  0  0  0  0  0  0  0  0
   57.5696   80.7418   30.9713 H   0  0  0  0  0  0  0  0  0  0  0  0
   58.7390   80.2344   28.7417 H   0  0  0  0  0  0  0  0  0  0  0  0
   59.3855   78.7542   29.5282 H   0  0  0  0  0  0  0  0  0  0  0  0
   56.7890   78.5960   30.1380 H   0  0  0  0  0  0  0  0  0  0  0  0
   57.8060   80.6984   27.3916 H   0  0  0  0  0  0  0  0  0  0  0  0
   56.2429   81.3785   25.5894 H   0  0  0  0  0  0  0  0  0  0  0  0
   53.6307   78.4434   24.2254 H   0  0  0  0  0  0  0  0  0  0  0  0
   52.1479   79.1546   22.3496 H   0  0  0  0  0  0  0  0  0  0  0  0
   49.5530   81.1050   23.2490 H   0  0  0  0  0  0  0  0  0  0  0  0
   48.9080   82.1370   22.0760 H   0  0  0  0  0  0  0  0  0  0  0  0
   52.2670   83.2337   23.8056 H   0  0  0  0  0  0  0  0  0  0  0  0
   53.7468   82.5161   25.6813 H   0  0  0  0  0  0  0  0  0  0  0  0
   52.5911   78.1190   28.0354 H   0  0  0  0  0  0  0  0  0  0  0  0
   52.2494   78.9544   26.4823 H   0  0  0  0  0  0  0  0  0  0  0  0
   53.0899   77.3668   26.4823 H   0  0  0  0  0  0  0  0  0  0  0  0
   54.9110   77.8572   28.8271 H   0  0  0  0  0  0  0  0  0  0  0  0
  1  2  1  0
  2  3  1  0
  3  4  1  0
  4  5  1  0
  5  6  2  0
  6  7  1  0
  7  8  1  0
  8  9  1  0
  9 10  2  0
 10 11  1  0
 11 12  1  0
 12 13  1  0
 12 14  2  0
 12 15  2  0
 11 16  2  0
 16 17  1  0
  7 18  2  0
 18 19  1  0
 18 20  1  0
 20  4  2  0
 17  8  2  0
  1 21  1  0
  1 22  1  0
  1 23  1  0
  2 24  1  0
  2 25  1  0
  3 26  1  0
  5 27  1  0
  6 28  1  0
  9 29  1  0
 10 30  1  0
 13 31  1  0
 13 32  1  0
 16 33  1  0
 17 34  1  0
 19 35  1  0
 19 36  1  0
 19 37  1  0
 20 38  1  0
M  END
>  <meeko>  (1) 
{"is_sidechain": false}

>  <smiles>  (1) 
CCNc1ccc(-c2ccc(S(N)(=O)=O)cc2)c(C)c1

>  <vina_score>  (1) 
-8.371

>  <job_id>  (1) 
d6d6b5f90d2384fe

$$$$
