
     RDKit          3D

 49 51  0  0  0  0  0  0  0  0999 V2000
   52.6440   77.1570   28.0790 C   0  0  0  0  0  0  0  0  0  0  0  0
   54.0370   77.3030   28.5730 C   0  0  0  0  0  0  0  0  0  0  0  0
   54.7390   76.3460   29.1450 N   0  0  0  0  0  0  0  0  0  0  0  0
   55.9510   76.9020   29.4410 C   0  0  0  0  0  0  0  0  0  0  0  0
   56.0240   78.2160   29.0230 C   0  0  0  0  0  0  0  0  0  0  0  0
   57.1320   79.1490   29.1370 C   0  0  0  0  0  0  0  0  0  0  0  0
   57.6320   79.2510   30.3890 N   0  0  0  0  0  0  0  0  0  0  0  0
   58.6600   80.0960   30.5610 C   0  0  0  0  0  0  0  0  0  0  0  0
   59.1140   80.1600   31.8680 N   0  0  0  0  0  0  0  0  0  0  0  0
   59.7160   81.2380   32.4720 C   0  0  0  0  0  0  0  0  0  0  0  0
   59.9340   82.3210   31.9350 O   0  0  0  0  0  0  0  0  0  0  0  0
   60.1160   80.9820   33.9450 C   0  0  0  0  0  0  0  0  0  0  0  0
   60.7320   82.2610   34.5420 C   0  0  0  0  0  0  0  0  0  0  0  0
   58.8750   80.6070   34.7700 C   0  0  0  0  0  0  0  0  0  0  0  0
   61.1610   79.8570   34.0200 C   0  0  0  0  0  0  0  0  0  0  0  0
   59.2080   80.8220   29.5800 N   0  0  0  0  0  0  0  0  0  0  0  0
   58.6900   80.6780   28.3430 C   0  0  0  0  0  0  0  0  0  0  0  0
   57.6410   79.8460   28.0630 C   0  0  0  0  0  0  0  0  0  0  0  0
   57.1490   79.7360   26.8230 F   0  0  0  0  0  0  0  0  0  0  0  0
   54.7700   78.4730   28.5040 N   0  0  0  0  0  0  0  0  0  0  0  0
   54.2610   79.7510   28.0190 C   0  0  0  0  0  0  0  0  0  0  0  0
   54.0320   79.7560   26.5170 C   0  0  0  0  0  0  0  0  0  0  0  0
   52.6130   80.1150   25.9930 C   0  0  0  0  0  0  0  0  0  0  0  0
   53.3100   80.8500   24.8310 C   0  0  0  0  0  0  0  0  0  0  0  0
   54.5210   81.0260   25.7700 C   0  0  0  0  0  0  0  0  0  0  0  0
   51.9570   77.0850   28.9351 H   0  0  0  0  0  0  0  0  0  0  0  0
   52.3780   78.0322   27.4680 H   0  0  0  0  0  0  0  0  0  0  0  0
   52.5653   76.2457   27.4680 H   0  0  0  0  0  0  0  0  0  0  0  0
   56.7679   76.3689   29.9495 H   0  0  0  0  0  0  0  0  0  0  0  0
   58.9560   79.3040   32.3730 H   0  0  0  0  0  0  0  0  0  0  0  0
   60.7042   82.2033   35.6401 H   0  0  0  0  0  0  0  0  0  0  0  0
   61.7751   82.3569   34.2061 H   0  0  0  0  0  0  0  0  0  0  0  0
   60.1567   83.1363   34.2061 H   0  0  0  0  0  0  0  0  0  0  0  0
   59.1119   80.6786   35.8418 H   0  0  0  0  0  0  0  0  0  0  0  0
   58.0526   81.2967   34.5294 H   0  0  0  0  0  0  0  0  0  0  0  0
   58.5722   79.5772   34.5294 H   0  0  0  0  0  0  0  0  0  0  0  0
   61.3758   79.6257   35.0737 H   0  0  0  0  0  0  0  0  0  0  0  0
   60.7694   78.9589   33.5200 H   0  0  0  0  0  0  0  0  0  0  0  0
   62.0855   80.1814   33.5200 H   0  0  0  0  0  0  0  0  0  0  0  0
   59.1325   81.2577   27.5195 H   0  0  0  0  0  0  0  0  0  0  0  0
   53.3060   79.9637   28.5218 H   0  0  0  0  0  0  0  0  0  0  0  0
   55.0170   80.5178   28.2436 H   0  0  0  0  0  0  0  0  0  0  0  0
   54.4596   78.7557   26.3541 H   0  0  0  0  0  0  0  0  0  0  0  0
   52.0024   79.2515   25.6906 H   0  0  0  0  0  0  0  0  0  0  0  0
   51.8668   80.6118   26.6304 H   0  0  0  0  0  0  0  0  0  0  0  0
   53.5024   80.2293   23.9435 H   0  0  0  0  0  0  0  0  0  0  0  0
   52.8422   81.7039   24.3191 H   0  0  0  0  0  0  0  0  0  0  0  0
   55.5008   80.9229   25.2808 H   0  0  0  0  0  0  0  0  0  0  0  0
   54.7140   81.9717   26.2976 H   0  0  0  0  0  0  0  0  0  0  0  0
  1  2  1  0
  2  3  2  0
  3  4  1  0
  4  5  2  0
  5  6  1  0
  6  7  2  0
  7  8  1  0
  8  9  1  0
  9 10  1  0
 10 11  2  0
 10 12  1  0
 12 13  1  0
 12 14  1  0
 12 15  1  0
  8 16  2  0
 16 17  1  0
 17 18  2  0
 18 19  1  0
  5 20  1  0
 20 21  1  0
 21 22  1  0
 22 23  1  0
 23 24  1  0
 24 25  1  0
 20  2  1  0
 25 22  1  0
 18  6  1  0
  1 26  1  0
  1 27  1  0
  1 28  1  0
  4 29  1  0
  9 30  1  0
 13 31  1  0
 13 32  1  0
 13 33  1  0
 14 34  1  0
 14 35  1  0
 14 36  1  0
 15 37  1  0
 15 38  1  0
 15 39  1  0
 17 40  1  0
 21 41  1  0
 21 42  1  0
 22 43  1  0
 23 44  1  0
 23 45  1  0
 24 46  1  0
 24 47  1  0
 25 48  1  0
 25 49  1  0
M  END
>  <meeko>  (1) 
{"is_sidechain": false}

>  <smiles>  (1) 
Cc1ncc(-c2nc(NC(=O)C(C)(C)C)ncc2F)n1CC1CCC1

>  <vina_score>  (1) 
-7.342

>  <job_id>  (1) 
d6e6eddb83880fb5

$$$$
