
     RDKit          3D

 31 32  0  0  0  0  0  0  0  0999 V2000
   49.5600   81.3560   22.1450 N   0  0  0  0  0  0  0  0  0  0  0  0
   51.0300   81.8680   21.5020 S   0  0  0  0  0  0  0  0  0  0  0  0
   50.8520   83.2680   21.1900 O   0  0  0  0  0  0  0  0  0  0  0  0
   51.4520   80.8990   20.5200 O   0  0  0  0  0  0  0  0  0  0  0  0
   52.0970   81.7370   22.9130 C   0  0  0  0  0  0  0  0  0  0  0  0
   52.2020   82.8200   23.7930 C   0  0  0  0  0  0  0  0  0  0  0  0
   53.0350   82.7210   24.9070 C   0  0  0  0  0  0  0  0  0  0  0  0
   53.7380   81.5380   25.1470 C   0  0  0  0  0  0  0  0  0  0  0  0
   54.5680   81.5170   26.2440 O   0  0  0  0  0  0  0  0  0  0  0  0
   54.6660   80.3340   26.9410 C   0  0  0  0  0  0  0  0  0  0  0  0
   53.5470   79.6120   27.3650 C   0  0  0  0  0  0  0  0  0  0  0  0
   53.7170   78.4370   28.1000 C   0  0  0  0  0  0  0  0  0  0  0  0
   55.0030   77.9780   28.4260 C   0  0  0  0  0  0  0  0  0  0  0  0
   55.1860   76.7200   29.2420 C   0  0  0  0  0  0  0  0  0  0  0  0
   55.1850   76.9490   30.5840 F   0  0  0  0  0  0  0  0  0  0  0  0
   56.3630   76.0930   28.9690 F   0  0  0  0  0  0  0  0  0  0  0  0
   54.2100   75.7960   29.0230 F   0  0  0  0  0  0  0  0  0  0  0  0
   56.1160   78.7320   28.0210 C   0  0  0  0  0  0  0  0  0  0  0  0
   55.9470   79.9070   27.2860 C   0  0  0  0  0  0  0  0  0  0  0  0
   53.6410   80.4610   24.2590 C   0  0  0  0  0  0  0  0  0  0  0  0
   52.8080   80.5550   23.1430 C   0  0  0  0  0  0  0  0  0  0  0  0
   49.0710   80.7960   21.4440 H   0  0  0  0  0  0  0  0  0  0  0  0
   48.9830   82.1200   22.4940 H   0  0  0  0  0  0  0  0  0  0  0  0
   51.6319   83.7422   23.6074 H   0  0  0  0  0  0  0  0  0  0  0  0
   53.1383   83.5728   25.5953 H   0  0  0  0  0  0  0  0  0  0  0  0
   52.5354   79.9683   27.1205 H   0  0  0  0  0  0  0  0  0  0  0  0
   52.8354   77.8659   28.4265 H   0  0  0  0  0  0  0  0  0  0  0  0
   57.1291   78.3944   28.2848 H   0  0  0  0  0  0  0  0  0  0  0  0
   56.8244   80.4953   26.9794 H   0  0  0  0  0  0  0  0  0  0  0  0
   54.2195   79.5430   24.4399 H   0  0  0  0  0  0  0  0  0  0  0  0
   52.7116   79.7062   22.4500 H   0  0  0  0  0  0  0  0  0  0  0  0
  1  2  1  0
  2  3  2  0
  2  4  2  0
  2  5  1  0
  5  6  1  0
  6  7  2  0
  7  8  1  0
  8  9  1  0
  9 10  1  0
 10 11  1  0
 11 12  2  0
 12 13  1  0
 13 14  1  0
 14 15  1  0
 14 16  1  0
 14 17  1  0
 13 18  2  0
 18 19  1  0
  8 20  2  0
 20 21  1  0
 21  5  2  0
 19 10  2  0
  1 22  1  0
  1 23  1  0
  6 24  1  0
  7 25  1  0
 11 26  1  0
 12 27  1  0
 18 28  1  0
 19 29  1  0
 20 30  1  0
 21 31  1  0
M  END
>  <meeko>  (1) 
{"is_sidechain": false}

>  <smiles>  (1) 
NS(=O)(=O)c1ccc(Oc2ccc(C(F)(F)F)cc2)cc1

>  <vina_score>  (1) 
-8.279

>  <job_id>  (1) 
d6fceb667d8ce11c

$$$$
