
     RDKit          3D

 52 54  0  0  0  0  0  0  0  0999 V2000
   63.5420   81.7330   32.8380 C   0  0  0  0  0  0  0  0  0  0  0  0
   62.3840   81.3700   33.4140 C   0  0  0  0  0  0  0  0  0  0  0  0
   62.1790   80.0260   34.0400 C   0  0  0  0  0  0  0  0  0  0  0  0
   61.2690   82.3710   33.4310 C   0  0  0  0  0  0  0  0  0  0  0  0
   60.8150   82.8580   34.4600 O   0  0  0  0  0  0  0  0  0  0  0  0
   60.6530   82.7670   32.1060 C   0  0  0  0  0  0  0  0  0  0  0  0
   60.8140   83.9140   31.7030 O   0  0  0  0  0  0  0  0  0  0  0  0
   59.9020   81.7580   31.3140 C   0  0  0  0  0  0  0  0  0  0  0  0
   60.0620   81.7470   29.9260 C   0  0  0  0  0  0  0  0  0  0  0  0
   59.3870   80.8020   29.1450 C   0  0  0  0  0  0  0  0  0  0  0  0
   58.5330   79.8490   29.7230 C   0  0  0  0  0  0  0  0  0  0  0  0
   57.9090   78.9190   28.8860 N   0  0  0  0  0  0  0  0  0  0  0  0
   56.6000   78.4690   28.7450 C   0  0  0  0  0  0  0  0  0  0  0  0
   56.0270   77.6490   29.6400 N   0  0  0  0  0  0  0  0  0  0  0  0
   54.7480   77.2810   29.4150 C   0  0  0  0  0  0  0  0  0  0  0  0
   54.0260   77.6920   28.3290 C   0  0  0  0  0  0  0  0  0  0  0  0
   52.7590   77.2980   28.1530 F   0  0  0  0  0  0  0  0  0  0  0  0
   54.6910   78.5140   27.4470 C   0  0  0  0  0  0  0  0  0  0  0  0
   54.0520   79.0620   26.2530 C   0  0  0  0  0  0  0  0  0  0  0  0
   53.4850   78.3840   25.1900 C   0  0  0  0  0  0  0  0  0  0  0  0
   52.9370   79.2390   24.2820 N   0  0  0  0  0  0  0  0  0  0  0  0
   53.1540   80.4510   24.7480 C   0  0  0  0  0  0  0  0  0  0  0  0
   52.6810   81.6810   24.0620 C   0  0  0  0  0  0  0  0  0  0  0  0
   53.8810   80.4050   25.9270 N   0  0  0  0  0  0  0  0  0  0  0  0
   54.4150   81.5360   26.6880 C   0  0  0  0  0  0  0  0  0  0  0  0
   53.3110   82.4810   27.1600 C   0  0  0  0  0  0  0  0  0  0  0  0
   55.5460   82.2930   25.9860 C   0  0  0  0  0  0  0  0  0  0  0  0
   55.9690   78.9130   27.6440 N   0  0  0  0  0  0  0  0  0  0  0  0
   58.3920   79.8690   31.1150 C   0  0  0  0  0  0  0  0  0  0  0  0
   59.0630   80.8120   31.9070 C   0  0  0  0  0  0  0  0  0  0  0  0
   63.6442   82.7328   32.3909 H   0  0  0  0  0  0  0  0  0  0  0  0
   64.3880   81.0304   32.8135 H   0  0  0  0  0  0  0  0  0  0  0  0
   62.1942   80.1256   35.1354 H   0  0  0  0  0  0  0  0  0  0  0  0
   61.2082   79.6178   33.7223 H   0  0  0  0  0  0  0  0  0  0  0  0
   62.9840   79.3469   33.7223 H   0  0  0  0  0  0  0  0  0  0  0  0
   60.7215   82.4844   29.4450 H   0  0  0  0  0  0  0  0  0  0  0  0
   59.5286   80.8059   28.0542 H   0  0  0  0  0  0  0  0  0  0  0  0
   58.4650   78.5430   28.1320 H   0  0  0  0  0  0  0  0  0  0  0  0
   54.2611   76.6158   30.1433 H   0  0  0  0  0  0  0  0  0  0  0  0
   53.4773   77.2886   25.0897 H   0  0  0  0  0  0  0  0  0  0  0  0
   52.3924   82.4315   24.8126 H   0  0  0  0  0  0  0  0  0  0  0  0
   53.4885   82.0835   23.4327 H   0  0  0  0  0  0  0  0  0  0  0  0
   51.8119   81.4387   23.4327 H   0  0  0  0  0  0  0  0  0  0  0  0
   54.8783   81.0838   27.5773 H   0  0  0  0  0  0  0  0  0  0  0  0
   53.2895   82.4994   28.2596 H   0  0  0  0  0  0  0  0  0  0  0  0
   53.5084   83.4943   26.7801 H   0  0  0  0  0  0  0  0  0  0  0  0
   52.3403   82.1296   26.7801 H   0  0  0  0  0  0  0  0  0  0  0  0
   56.2119   82.7387   26.7396 H   0  0  0  0  0  0  0  0  0  0  0  0
   56.1188   81.5956   25.3571 H   0  0  0  0  0  0  0  0  0  0  0  0
   55.1197   83.0884   25.3571 H   0  0  0  0  0  0  0  0  0  0  0  0
   57.7395   79.1277   31.5994 H   0  0  0  0  0  0  0  0  0  0  0  0
   58.9281   80.8065   32.9987 H   0  0  0  0  0  0  0  0  0  0  0  0
  1  2  2  0
  2  3  1  0
  2  4  1  0
  4  5  2  0
  4  6  1  0
  6  7  2  0
  6  8  1  0
  8  9  1  0
  9 10  2  0
 10 11  1  0
 11 12  1  0
 12 13  1  0
 13 14  2  0
 14 15  1  0
 15 16  2  0
 16 17  1  0
 16 18  1  0
 18 19  1  0
 19 20  2  0
 20 21  1  0
 21 22  2  0
 22 23  1  0
 22 24  1  0
 24 25  1  0
 25 26  1  0
 25 27  1  0
 18 28  2  0
 11 29  2  0
 29 30  1  0
 30  8  2  0
 28 13  1  0
 24 19  1  0
  1 31  1  0
  1 32  1  0
  3 33  1  0
  3 34  1  0
  3 35  1  0
  9 36  1  0
 10 37  1  0
 12 38  1  0
 15 39  1  0
 20 40  1  0
 23 41  1  0
 23 42  1  0
 23 43  1  0
 25 44  1  0
 26 45  1  0
 26 46  1  0
 26 47  1  0
 27 48  1  0
 27 49  1  0
 27 50  1  0
 29 51  1  0
 30 52  1  0
M  END
>  <meeko>  (1) 
{"is_sidechain": false}

>  <smiles>  (1) 
C=C(C)C(=O)C(=O)c1ccc(Nc2ncc(F)c(-c3cnc(C)n3C(C)C)n2)cc1

>  <vina_score>  (1) 
-8.900

>  <job_id>  (1) 
d70ee27fc6e8f853

$$$$
