
     RDKit          3D

 49 51  0  0  0  0  0  0  0  0999 V2000
   55.9050   82.6600   26.1880 C   0  0  0  0  0  0  0  0  0  0  0  0
   55.9200   81.4200   25.4770 O   0  0  0  0  0  0  0  0  0  0  0  0
   55.5810   80.3960   26.3350 C   0  0  0  0  0  0  0  0  0  0  0  0
   56.5470   80.0560   27.2960 C   0  0  0  0  0  0  0  0  0  0  0  0
   56.2950   79.0830   28.2660 C   0  0  0  0  0  0  0  0  0  0  0  0
   57.3130   78.7490   29.1620 N   0  0  0  0  0  0  0  0  0  0  0  0
   58.5850   79.4550   29.1070 C   0  0  0  0  0  0  0  0  0  0  0  0
   58.5780   80.5650   30.1340 C   0  0  0  0  0  0  0  0  0  0  0  0
   58.9340   81.8730   29.7650 C   0  0  0  0  0  0  0  0  0  0  0  0
   58.9220   82.9080   30.7030 C   0  0  0  0  0  0  0  0  0  0  0  0
   58.5490   82.6420   32.0190 C   0  0  0  0  0  0  0  0  0  0  0  0
   58.5370   83.6550   32.9400 O   0  0  0  0  0  0  0  0  0  0  0  0
   58.1870   81.3480   32.4000 C   0  0  0  0  0  0  0  0  0  0  0  0
   57.7150   80.9820   34.0200 Cl  0  0  0  0  0  0  0  0  0  0  0  0
   58.1990   80.3130   31.4600 C   0  0  0  0  0  0  0  0  0  0  0  0
   55.0740   78.4140   28.1910 C   0  0  0  0  0  0  0  0  0  0  0  0
   54.1170   78.7390   27.2120 C   0  0  0  0  0  0  0  0  0  0  0  0
   54.3440   79.7240   26.2400 C   0  0  0  0  0  0  0  0  0  0  0  0
   53.3990   80.0140   25.2580 N   0  0  0  0  0  0  0  0  0  0  0  0
   52.6770   81.3040   25.3490 C   0  0  0  0  0  0  0  0  0  0  0  0
   52.5130   81.9700   23.9600 C   0  0  0  0  0  0  0  0  0  0  0  0
   51.9000   81.1320   22.9070 N   0  0  0  0  0  0  0  0  0  0  0  0
   50.4610   81.3570   22.8050 C   0  0  0  0  0  0  0  0  0  0  0  0
   52.1850   79.6960   23.1310 C   0  0  0  0  0  0  0  0  0  0  0  0
   53.4950   79.4330   23.9100 C   0  0  0  0  0  0  0  0  0  0  0  0
   55.9074   82.4623   27.2701 H   0  0  0  0  0  0  0  0  0  0  0  0
   56.7961   83.2468   25.9205 H   0  0  0  0  0  0  0  0  0  0  0  0
   55.0000   83.2251   25.9205 H   0  0  0  0  0  0  0  0  0  0  0  0
   57.5215   80.5661   27.2846 H   0  0  0  0  0  0  0  0  0  0  0  0
   57.4310   77.7420   29.2440 H   0  0  0  0  0  0  0  0  0  0  0  0
   59.4048   78.7551   29.3263 H   0  0  0  0  0  0  0  0  0  0  0  0
   58.7309   79.8794   28.1027 H   0  0  0  0  0  0  0  0  0  0  0  0
   59.2255   82.0845   28.7256 H   0  0  0  0  0  0  0  0  0  0  0  0
   59.2056   83.9280   30.4043 H   0  0  0  0  0  0  0  0  0  0  0  0
   59.1690   84.3410   32.6700 H   0  0  0  0  0  0  0  0  0  0  0  0
   57.9096   79.2958   31.7625 H   0  0  0  0  0  0  0  0  0  0  0  0
   54.8539   77.6142   28.9134 H   0  0  0  0  0  0  0  0  0  0  0  0
   53.1572   78.2016   27.2090 H   0  0  0  0  0  0  0  0  0  0  0  0
   51.6801   81.1247   25.7780 H   0  0  0  0  0  0  0  0  0  0  0  0
   53.2652   81.9811   25.9858 H   0  0  0  0  0  0  0  0  0  0  0  0
   51.8842   82.8635   24.0874 H   0  0  0  0  0  0  0  0  0  0  0  0
   53.5342   82.1838   23.6115 H   0  0  0  0  0  0  0  0  0  0  0  0
   50.0280   81.4247   23.8139 H   0  0  0  0  0  0  0  0  0  0  0  0
   50.2742   82.2953   22.2621 H   0  0  0  0  0  0  0  0  0  0  0  0
   49.9967   80.5205   22.2621 H   0  0  0  0  0  0  0  0  0  0  0  0
   51.3500   79.2615   23.7002 H   0  0  0  0  0  0  0  0  0  0  0  0
   52.3042   79.2349   22.1395 H   0  0  0  0  0  0  0  0  0  0  0  0
   53.6602   78.3485   23.9908 H   0  0  0  0  0  0  0  0  0  0  0  0
   54.3357   79.8973   23.3737 H   0  0  0  0  0  0  0  0  0  0  0  0
  1  2  1  0
  2  3  1  0
  3  4  1  0
  4  5  2  0
  5  6  1  0
  6  7  1  0
  7  8  1  0
  8  9  1  0
  9 10  2  0
 10 11  1  0
 11 12  1  0
 11 13  2  0
 13 14  1  0
 13 15  1  0
  5 16  1  0
 16 17  2  0
 17 18  1  0
 18 19  1  0
 19 20  1  0
 20 21  1  0
 21 22  1  0
 22 23  1  0
 22 24  1  0
 24 25  1  0
 18  3  2  0
 25 19  1  0
 15  8  2  0
  1 26  1  0
  1 27  1  0
  1 28  1  0
  4 29  1  0
  6 30  1  0
  7 31  1  0
  7 32  1  0
  9 33  1  0
 10 34  1  0
 12 35  1  0
 15 36  1  0
 16 37  1  0
 17 38  1  0
 20 39  1  0
 20 40  1  0
 21 41  1  0
 21 42  1  0
 23 43  1  0
 23 44  1  0
 23 45  1  0
 24 46  1  0
 24 47  1  0
 25 48  1  0
 25 49  1  0
M  END
>  <meeko>  (1) 
{"is_sidechain": false}

>  <smiles>  (1) 
COc1cc(NCc2ccc(O)c(Cl)c2)ccc1N1CCN(C)CC1

>  <vina_score>  (1) 
-7.871

>  <job_id>  (1) 
d72aef766315869a

$$$$
