
     RDKit          3D

 46 48  0  0  0  0  0  0  0  0999 V2000
   55.4690   81.1410   26.2260 C   0  0  0  0  0  0  0  0  0  0  0  0
   56.3260   80.1450   26.7690 O   0  0  0  0  0  0  0  0  0  0  0  0
   55.7550   79.1720   27.5460 C   0  0  0  0  0  0  0  0  0  0  0  0
   54.3920   78.8670   27.5540 C   0  0  0  0  0  0  0  0  0  0  0  0
   53.9120   77.8540   28.3800 C   0  0  0  0  0  0  0  0  0  0  0  0
   52.6020   77.5720   28.3770 F   0  0  0  0  0  0  0  0  0  0  0  0
   54.7610   77.1330   29.2040 C   0  0  0  0  0  0  0  0  0  0  0  0
   56.1220   77.4280   29.2060 C   0  0  0  0  0  0  0  0  0  0  0  0
   56.6330   78.4510   28.3840 C   0  0  0  0  0  0  0  0  0  0  0  0
   58.1240   78.7290   28.4080 C   0  0  0  0  0  0  0  0  0  0  0  0
   58.5110   79.8800   29.3070 C   0  0  0  0  0  0  0  0  0  0  0  0
   58.1740   79.8810   30.6610 C   0  0  0  0  0  0  0  0  0  0  0  0
   58.5430   80.9510   31.4890 C   0  0  0  0  0  0  0  0  0  0  0  0
   59.2690   82.0540   31.0090 C   0  0  0  0  0  0  0  0  0  0  0  0
   59.6320   83.1180   31.8340 N   0  0  0  0  0  0  0  0  0  0  0  0
   58.6180   84.0710   32.2840 C   0  0  0  0  0  0  0  0  0  0  0  0
   59.1580   85.4320   32.7210 C   0  0  0  0  0  0  0  0  0  0  0  0
   60.0700   85.3670   33.9590 C   0  0  0  0  0  0  0  0  0  0  0  0
   60.0650   84.0620   34.6250 N   0  0  0  0  0  0  0  0  0  0  0  0
   60.9240   83.0750   33.9520 C   0  0  0  0  0  0  0  0  0  0  0  0
   60.9780   83.1760   32.4140 C   0  0  0  0  0  0  0  0  0  0  0  0
   59.5920   82.0320   29.6430 C   0  0  0  0  0  0  0  0  0  0  0  0
   59.2250   80.9690   28.8060 C   0  0  0  0  0  0  0  0  0  0  0  0
   54.9896   81.6981   27.0444 H   0  0  0  0  0  0  0  0  0  0  0  0
   56.0580   81.8335   25.6067 H   0  0  0  0  0  0  0  0  0  0  0  0
   54.6963   80.6619   25.6067 H   0  0  0  0  0  0  0  0  0  0  0  0
   53.6987   79.4263   26.9086 H   0  0  0  0  0  0  0  0  0  0  0  0
   54.3642   76.3359   29.8499 H   0  0  0  0  0  0  0  0  0  0  0  0
   56.8031   76.8576   29.8546 H   0  0  0  0  0  0  0  0  0  0  0  0
   58.6407   77.8240   28.7600 H   0  0  0  0  0  0  0  0  0  0  0  0
   58.4165   79.0069   27.3847 H   0  0  0  0  0  0  0  0  0  0  0  0
   57.6133   79.0340   31.0832 H   0  0  0  0  0  0  0  0  0  0  0  0
   58.2543   80.9259   32.5501 H   0  0  0  0  0  0  0  0  0  0  0  0
   57.9120   84.2340   31.4563 H   0  0  0  0  0  0  0  0  0  0  0  0
   58.1519   83.6253   33.1751 H   0  0  0  0  0  0  0  0  0  0  0  0
   59.7337   85.8611   31.8877 H   0  0  0  0  0  0  0  0  0  0  0  0
   58.2898   86.0501   32.9933 H   0  0  0  0  0  0  0  0  0  0  0  0
   61.0996   85.5926   33.6443 H   0  0  0  0  0  0  0  0  0  0  0  0
   59.6830   86.0993   34.6828 H   0  0  0  0  0  0  0  0  0  0  0  0
   59.1100   83.7080   34.6580 H   0  0  0  0  0  0  0  0  0  0  0  0
   61.9474   83.2001   34.3353 H   0  0  0  0  0  0  0  0  0  0  0  0
   60.4827   82.0920   34.1733 H   0  0  0  0  0  0  0  0  0  0  0  0
   61.4497   84.1291   32.1328 H   0  0  0  0  0  0  0  0  0  0  0  0
   61.5619   82.3273   32.0282 H   0  0  0  0  0  0  0  0  0  0  0  0
   60.1516   82.8769   29.2152 H   0  0  0  0  0  0  0  0  0  0  0  0
   59.5031   80.9937   27.7420 H   0  0  0  0  0  0  0  0  0  0  0  0
  1  2  1  0
  2  3  1  0
  3  4  1  0
  4  5  2  0
  5  6  1  0
  5  7  1  0
  7  8  2  0
  8  9  1  0
  9 10  1  0
 10 11  1  0
 11 12  1  0
 12 13  2  0
 13 14  1  0
 14 15  1  0
 15 16  1  0
 16 17  1  0
 17 18  1  0
 18 19  1  0
 19 20  1  0
 20 21  1  0
 14 22  2  0
 22 23  1  0
  9  3  2  0
 23 11  2  0
 21 15  1  0
  1 24  1  0
  1 25  1  0
  1 26  1  0
  4 27  1  0
  7 28  1  0
  8 29  1  0
 10 30  1  0
 10 31  1  0
 12 32  1  0
 13 33  1  0
 16 34  1  0
 16 35  1  0
 17 36  1  0
 17 37  1  0
 18 38  1  0
 18 39  1  0
 19 40  1  0
 20 41  1  0
 20 42  1  0
 21 43  1  0
 21 44  1  0
 22 45  1  0
 23 46  1  0
M  END
>  <meeko>  (1) 
{"is_sidechain": false}

>  <smiles>  (1) 
COc1cc(F)ccc1Cc1ccc(N2CCCNCC2)cc1

>  <vina_score>  (1) 
-6.408

>  <job_id>  (1) 
d78efaf037bd2177

$$$$
