
     RDKit          3D

 44 46  0  0  0  0  0  0  0  0999 V2000
   52.5600   83.9820   23.8950 O   0  0  0  0  0  0  0  0  0  0  0  0
   52.6630   82.7720   24.5160 C   0  0  0  0  0  0  0  0  0  0  0  0
   52.8250   82.7640   25.8960 C   0  0  0  0  0  0  0  0  0  0  0  0
   52.9350   81.5490   26.5720 C   0  0  0  0  0  0  0  0  0  0  0  0
   52.8790   80.3380   25.8680 C   0  0  0  0  0  0  0  0  0  0  0  0
   53.0160   79.0220   26.5980 C   0  0  0  0  0  0  0  0  0  0  0  0
   54.4880   78.5840   26.7020 C   0  0  0  0  0  0  0  0  0  0  0  0
   55.2500   79.1390   27.8270 N   0  0  0  0  0  0  0  0  0  0  0  0
   55.7230   78.1280   28.7730 C   0  0  0  0  0  0  0  0  0  0  0  0
   56.7010   78.7270   29.7820 C   0  0  0  0  0  0  0  0  0  0  0  0
   57.9740   79.2120   29.0670 C   0  0  0  0  0  0  0  0  0  0  0  0
   58.7590   80.2040   29.9090 C   0  0  0  0  0  0  0  0  0  0  0  0
   58.6560   80.2340   31.3080 C   0  0  0  0  0  0  0  0  0  0  0  0
   59.3820   81.1600   32.0590 C   0  0  0  0  0  0  0  0  0  0  0  0
   60.2200   82.0730   31.4230 C   0  0  0  0  0  0  0  0  0  0  0  0
   60.3330   82.0580   30.0360 C   0  0  0  0  0  0  0  0  0  0  0  0
   59.6080   81.1310   29.2830 C   0  0  0  0  0  0  0  0  0  0  0  0
   57.6830   79.7330   27.6460 C   0  0  0  0  0  0  0  0  0  0  0  0
   56.2280   80.1640   27.4610 C   0  0  0  0  0  0  0  0  0  0  0  0
   52.7200   80.3660   24.4750 C   0  0  0  0  0  0  0  0  0  0  0  0
   52.6100   81.5820   23.7970 C   0  0  0  0  0  0  0  0  0  0  0  0
   52.5480   84.6760   24.5730 H   0  0  0  0  0  0  0  0  0  0  0  0
   52.8663   83.7117   26.4529 H   0  0  0  0  0  0  0  0  0  0  0  0
   53.0665   81.5409   27.6641 H   0  0  0  0  0  0  0  0  0  0  0  0
   52.6033   79.1312   27.6118 H   0  0  0  0  0  0  0  0  0  0  0  0
   52.4673   78.2550   26.0318 H   0  0  0  0  0  0  0  0  0  0  0  0
   54.5067   77.4878   26.7919 H   0  0  0  0  0  0  0  0  0  0  0  0
   54.9758   78.9716   25.7955 H   0  0  0  0  0  0  0  0  0  0  0  0
   54.8603   77.7117   29.3138 H   0  0  0  0  0  0  0  0  0  0  0  0
   56.2448   77.3412   28.2085 H   0  0  0  0  0  0  0  0  0  0  0  0
   56.2232   79.5779   30.2897 H   0  0  0  0  0  0  0  0  0  0  0  0
   56.9747   77.9557   30.5169 H   0  0  0  0  0  0  0  0  0  0  0  0
   58.6238   78.3334   28.9411 H   0  0  0  0  0  0  0  0  0  0  0  0
   57.9949   79.5189   31.8194 H   0  0  0  0  0  0  0  0  0  0  0  0
   59.2922   81.1687   33.1553 H   0  0  0  0  0  0  0  0  0  0  0  0
   60.7906   82.8035   32.0152 H   0  0  0  0  0  0  0  0  0  0  0  0
   60.9946   82.7776   29.5315 H   0  0  0  0  0  0  0  0  0  0  0  0
   59.7033   81.1272   28.1871 H   0  0  0  0  0  0  0  0  0  0  0  0
   58.3338   80.5975   27.4482 H   0  0  0  0  0  0  0  0  0  0  0  0
   57.8766   78.9084   26.9442 H   0  0  0  0  0  0  0  0  0  0  0  0
   56.0485   81.0514   28.0857 H   0  0  0  0  0  0  0  0  0  0  0  0
   56.0907   80.3647   26.3882 H   0  0  0  0  0  0  0  0  0  0  0  0
   52.6816   79.4221   23.9115 H   0  0  0  0  0  0  0  0  0  0  0  0
   52.4826   81.5988   22.7045 H   0  0  0  0  0  0  0  0  0  0  0  0
  1  2  1  0
  2  3  1  0
  3  4  2  0
  4  5  1  0
  5  6  1  0
  6  7  1  0
  7  8  1  0
  8  9  1  0
  9 10  1  0
 10 11  1  0
 11 12  1  0
 12 13  2  0
 13 14  1  0
 14 15  2  0
 15 16  1  0
 16 17  2  0
 11 18  1  0
 18 19  1  0
  5 20  2  0
 20 21  1  0
 21  2  2  0
 19  8  1  0
 17 12  1  0
  1 22  1  0
  3 23  1  0
  4 24  1  0
  6 25  1  0
  6 26  1  0
  7 27  1  0
  7 28  1  0
  9 29  1  0
  9 30  1  0
 10 31  1  0
 10 32  1  0
 11 33  1  0
 13 34  1  0
 14 35  1  0
 15 36  1  0
 16 37  1  0
 17 38  1  0
 18 39  1  0
 18 40  1  0
 19 41  1  0
 19 42  1  0
 20 43  1  0
 21 44  1  0
M  END
>  <meeko>  (1) 
{"is_sidechain": false}

>  <smiles>  (1) 
Oc1ccc(CCN2CCC(c3ccccc3)CC2)cc1

>  <vina_score>  (1) 
-7.621

>  <job_id>  (1) 
d796818a6bb704a3

$$$$
