
     RDKit          3D

 38 39  0  0  0  0  0  0  0  0999 V2000
   52.5600   75.3570   27.0290 C   0  0  0  0  0  0  0  0  0  0  0  0
   52.4310   76.5020   28.0200 C   0  0  0  0  0  0  0  0  0  0  0  0
   53.7540   77.1860   28.2640 C   0  0  0  0  0  0  0  0  0  0  0  0
   54.6910   76.6280   29.1450 C   0  0  0  0  0  0  0  0  0  0  0  0
   55.9250   77.2490   29.3570 C   0  0  0  0  0  0  0  0  0  0  0  0
   56.2300   78.4410   28.6900 C   0  0  0  0  0  0  0  0  0  0  0  0
   57.5330   79.1380   28.8860 C   0  0  0  0  0  0  0  0  0  0  0  0
   58.3910   79.0190   28.0200 O   0  0  0  0  0  0  0  0  0  0  0  0
   57.6200   79.8900   30.0440 N   0  0  0  0  0  0  0  0  0  0  0  0
   58.7280   80.6330   30.5020 C   0  0  0  0  0  0  0  0  0  0  0  0
   59.5520   81.3980   29.6720 C   0  0  0  0  0  0  0  0  0  0  0  0
   60.6360   82.1070   30.2020 C   0  0  0  0  0  0  0  0  0  0  0  0
   60.9050   82.0350   31.5690 C   0  0  0  0  0  0  0  0  0  0  0  0
   62.2810   82.9390   32.2360 S   0  0  0  0  0  0  0  0  0  0  0  0
   63.5620   82.6750   31.0370 C   0  0  0  0  0  0  0  0  0  0  0  0
   62.6820   82.2850   33.4670 O   0  0  0  0  0  0  0  0  0  0  0  0
   61.9260   84.3450   32.2200 O   0  0  0  0  0  0  0  0  0  0  0  0
   60.0870   81.2860   32.4150 C   0  0  0  0  0  0  0  0  0  0  0  0
   59.0040   80.5860   31.8760 C   0  0  0  0  0  0  0  0  0  0  0  0
   55.3100   78.9880   27.7890 C   0  0  0  0  0  0  0  0  0  0  0  0
   54.0780   78.3650   27.5810 C   0  0  0  0  0  0  0  0  0  0  0  0
   52.6668   74.4088   27.5762 H   0  0  0  0  0  0  0  0  0  0  0  0
   51.6608   75.3162   26.3968 H   0  0  0  0  0  0  0  0  0  0  0  0
   53.4458   75.5173   26.3968 H   0  0  0  0  0  0  0  0  0  0  0  0
   51.7178   77.2386   27.6216 H   0  0  0  0  0  0  0  0  0  0  0  0
   52.0797   76.0875   28.9764 H   0  0  0  0  0  0  0  0  0  0  0  0
   54.4529   75.6934   29.6739 H   0  0  0  0  0  0  0  0  0  0  0  0
   56.6554   76.8015   30.0471 H   0  0  0  0  0  0  0  0  0  0  0  0
   56.7760   79.9740   30.5960 H   0  0  0  0  0  0  0  0  0  0  0  0
   59.3467   81.4433   28.5923 H   0  0  0  0  0  0  0  0  0  0  0  0
   61.2723   82.7176   29.5445 H   0  0  0  0  0  0  0  0  0  0  0  0
   64.5131   82.4790   31.5537 H   0  0  0  0  0  0  0  0  0  0  0  0
   63.3022   81.8115   30.4070 H   0  0  0  0  0  0  0  0  0  0  0  0
   63.6648   83.5708   30.4070 H   0  0  0  0  0  0  0  0  0  0  0  0
   60.2922   81.2467   33.4950 H   0  0  0  0  0  0  0  0  0  0  0  0
   58.3593   79.9900   32.5387 H   0  0  0  0  0  0  0  0  0  0  0  0
   55.5578   79.9105   27.2435 H   0  0  0  0  0  0  0  0  0  0  0  0
   53.3566   78.8033   26.8756 H   0  0  0  0  0  0  0  0  0  0  0  0
  1  2  1  0
  2  3  1  0
  3  4  1  0
  4  5  2  0
  5  6  1  0
  6  7  1  0
  7  8  2  0
  7  9  1  0
  9 10  1  0
 10 11  1  0
 11 12  2  0
 12 13  1  0
 13 14  1  0
 14 15  1  0
 14 16  2  0
 14 17  2  0
 13 18  2  0
 18 19  1  0
  6 20  2  0
 20 21  1  0
 21  3  2  0
 19 10  2  0
  1 22  1  0
  1 23  1  0
  1 24  1  0
  2 25  1  0
  2 26  1  0
  4 27  1  0
  5 28  1  0
  9 29  1  0
 11 30  1  0
 12 31  1  0
 15 32  1  0
 15 33  1  0
 15 34  1  0
 18 35  1  0
 19 36  1  0
 20 37  1  0
 21 38  1  0
M  END
>  <meeko>  (1) 
{"is_sidechain": false}

>  <smiles>  (1) 
CCc1ccc(C(=O)Nc2ccc(S(C)(=O)=O)cc2)cc1

>  <vina_score>  (1) 
-7.929

>  <job_id>  (1) 
d7a23fdaf7c59ed2

$$$$
