
     RDKit          3D

 46 49  0  0  0  0  0  0  0  0999 V2000
   61.2660   82.7970   34.8520 C   0  0  0  0  0  0  0  0  0  0  0  0
   60.0600   83.4690   34.3960 N   0  0  0  0  0  0  0  0  0  0  0  0
   59.8790   83.8760   32.7610 S   0  0  0  0  0  0  0  0  0  0  0  0
   61.1810   84.3510   32.3560 O   0  0  0  0  0  0  0  0  0  0  0  0
   58.5310   85.3800   32.5220 S   0  0  0  0  0  0  0  0  0  0  0  0
   59.4290   82.4620   31.8270 C   0  0  0  0  0  0  0  0  0  0  0  0
   59.8290   82.3640   30.4950 C   0  0  0  0  0  0  0  0  0  0  0  0
   59.4440   81.2510   29.7390 C   0  0  0  0  0  0  0  0  0  0  0  0
   58.6630   80.2290   30.2900 C   0  0  0  0  0  0  0  0  0  0  0  0
   58.2280   79.1070   29.5780 N   0  0  0  0  0  0  0  0  0  0  0  0
   56.9890   78.6630   29.1250 C   0  0  0  0  0  0  0  0  0  0  0  0
   56.3300   77.6510   29.7310 N   0  0  0  0  0  0  0  0  0  0  0  0
   55.1300   77.2800   29.2380 C   0  0  0  0  0  0  0  0  0  0  0  0
   54.5710   77.8900   28.1560 C   0  0  0  0  0  0  0  0  0  0  0  0
   55.3290   78.9090   27.6100 C   0  0  0  0  0  0  0  0  0  0  0  0
   56.5240   79.3130   28.0470 N   0  0  0  0  0  0  0  0  0  0  0  0
   54.6370   79.4340   26.5020 N   0  0  0  0  0  0  0  0  0  0  0  0
   55.0960   80.5730   25.7400 C   0  0  0  0  0  0  0  0  0  0  0  0
   55.0510   81.8740   26.5470 C   0  0  0  0  0  0  0  0  0  0  0  0
   56.3660   82.2990   26.8900 O   0  0  0  0  0  0  0  0  0  0  0  0
   53.4170   78.8030   26.3160 C   0  0  0  0  0  0  0  0  0  0  0  0
   52.5600   79.0320   25.4790 O   0  0  0  0  0  0  0  0  0  0  0  0
   53.3120   77.7410   27.3830 C   0  0  0  0  0  0  0  0  0  0  0  0
   51.9950   77.3920   28.0210 C   0  0  0  0  0  0  0  0  0  0  0  0
   52.6740   76.4060   27.1060 C   0  0  0  0  0  0  0  0  0  0  0  0
   58.2590   80.3660   31.6320 C   0  0  0  0  0  0  0  0  0  0  0  0
   58.6360   81.4720   32.4000 C   0  0  0  0  0  0  0  0  0  0  0  0
   61.2860   82.7859   35.9518 H   0  0  0  0  0  0  0  0  0  0  0  0
   61.2750   81.7638   34.4746 H   0  0  0  0  0  0  0  0  0  0  0  0
   62.1494   83.3329   34.4746 H   0  0  0  0  0  0  0  0  0  0  0  0
   59.2790   82.8490   34.5930 H   0  0  0  0  0  0  0  0  0  0  0  0
   60.4430   83.1560   30.0414 H   0  0  0  0  0  0  0  0  0  0  0  0
   59.7623   81.1780   28.6886 H   0  0  0  0  0  0  0  0  0  0  0  0
   58.9420   78.5030   29.1940 H   0  0  0  0  0  0  0  0  0  0  0  0
   54.5854   76.4581   29.7258 H   0  0  0  0  0  0  0  0  0  0  0  0
   56.1332   80.3904   25.4224 H   0  0  0  0  0  0  0  0  0  0  0  0
   54.4241   80.6911   24.8771 H   0  0  0  0  0  0  0  0  0  0  0  0
   54.5643   82.6556   25.9452 H   0  0  0  0  0  0  0  0  0  0  0  0
   54.4838   81.6966   27.4727 H   0  0  0  0  0  0  0  0  0  0  0  0
   56.2820   83.1670   27.3210 H   0  0  0  0  0  0  0  0  0  0  0  0
   51.9428   77.1937   29.1017 H   0  0  0  0  0  0  0  0  0  0  0  0
   51.0006   77.8607   28.0590 H   0  0  0  0  0  0  0  0  0  0  0  0
   53.1178   75.4879   27.5186 H   0  0  0  0  0  0  0  0  0  0  0  0
   52.3812   75.8566   26.1991 H   0  0  0  0  0  0  0  0  0  0  0  0
   57.6322   79.5847   32.0867 H   0  0  0  0  0  0  0  0  0  0  0  0
   58.3091   81.5588   33.4467 H   0  0  0  0  0  0  0  0  0  0  0  0
  1  2  1  0
  2  3  1  0
  3  4  2  0
  3  5  2  0
  3  6  1  0
  6  7  1  0
  7  8  2  0
  8  9  1  0
  9 10  1  0
 10 11  1  0
 11 12  2  0
 12 13  1  0
 13 14  2  0
 14 15  1  0
 15 16  2  0
 15 17  1  0
 17 18  1  0
 18 19  1  0
 19 20  1  0
 17 21  1  0
 21 22  2  0
 21 23  1  0
 23 24  1  0
 24 25  1  0
  9 26  2  0
 26 27  1  0
 27  6  2  0
 16 11  1  0
 25 23  1  0
 23 14  1  0
  1 28  1  0
  1 29  1  0
  1 30  1  0
  2 31  1  0
  7 32  1  0
  8 33  1  0
 10 34  1  0
 13 35  1  0
 18 36  1  0
 18 37  1  0
 19 38  1  0
 19 39  1  0
 20 40  1  0
 24 41  1  0
 24 42  1  0
 25 43  1  0
 25 44  1  0
 26 45  1  0
 27 46  1  0
M  END
>  <meeko>  (1) 
{"is_sidechain": false}

>  <smiles>  (1) 
CNS(=O)(=S)c1ccc(Nc2ncc3c(n2)N(CCO)C(=O)C32CC2)cc1

>  <vina_score>  (1) 
-8.084

>  <job_id>  (1) 
d7a532a99a09e746

$$$$
