
     RDKit          3D

 35 36  0  0  0  0  0  0  0  0999 V2000
   58.5230   79.8990   31.0180 C   0  0  0  0  0  0  0  0  0  0  0  0
   57.6080   79.1080   30.2140 N   0  0  0  0  0  0  0  0  0  0  0  0
   57.6060   79.2410   28.5470 S   0  0  0  0  0  0  0  0  0  0  0  0
   57.8220   80.6290   28.2020 O   0  0  0  0  0  0  0  0  0  0  0  0
   58.4620   78.1870   28.0510 O   0  0  0  0  0  0  0  0  0  0  0  0
   55.9320   78.8180   28.1330 C   0  0  0  0  0  0  0  0  0  0  0  0
   55.2200   77.9240   28.9340 C   0  0  0  0  0  0  0  0  0  0  0  0
   53.9030   77.6130   28.6040 C   0  0  0  0  0  0  0  0  0  0  0  0
   53.3050   78.2020   27.4860 C   0  0  0  0  0  0  0  0  0  0  0  0
   54.0040   79.1180   26.6780 C   0  0  0  0  0  0  0  0  0  0  0  0
   53.3610   79.7470   25.5120 C   0  0  0  0  0  0  0  0  0  0  0  0
   53.3150   79.0850   24.2710 C   0  0  0  0  0  0  0  0  0  0  0  0
   52.7120   79.6790   23.1580 C   0  0  0  0  0  0  0  0  0  0  0  0
   52.1390   80.9450   23.2830 C   0  0  0  0  0  0  0  0  0  0  0  0
   51.3820   81.7160   21.8770 S   0  0  0  0  0  0  0  0  0  0  0  0
   49.7560   81.3570   22.1330 N   0  0  0  0  0  0  0  0  0  0  0  0
   51.5460   83.1440   21.9940 O   0  0  0  0  0  0  0  0  0  0  0  0
   51.7610   80.9820   20.6920 O   0  0  0  0  0  0  0  0  0  0  0  0
   52.1800   81.6280   24.5000 C   0  0  0  0  0  0  0  0  0  0  0  0
   52.7860   81.0270   25.6060 C   0  0  0  0  0  0  0  0  0  0  0  0
   55.3310   79.4210   27.0210 C   0  0  0  0  0  0  0  0  0  0  0  0
   58.3197   79.7232   32.0847 H   0  0  0  0  0  0  0  0  0  0  0  0
   59.5585   79.6070   30.7891 H   0  0  0  0  0  0  0  0  0  0  0  0
   58.3838   80.9659   30.7891 H   0  0  0  0  0  0  0  0  0  0  0  0
   56.7470   78.7540   30.6250 H   0  0  0  0  0  0  0  0  0  0  0  0
   55.6939   77.4698   29.8167 H   0  0  0  0  0  0  0  0  0  0  0  0
   53.3335   76.9041   29.2230 H   0  0  0  0  0  0  0  0  0  0  0  0
   52.2662   77.9440   27.2325 H   0  0  0  0  0  0  0  0  0  0  0  0
   53.7607   78.0839   24.1750 H   0  0  0  0  0  0  0  0  0  0  0  0
   52.6896   79.1528   22.1923 H   0  0  0  0  0  0  0  0  0  0  0  0
   49.3970   80.6410   21.5030 H   0  0  0  0  0  0  0  0  0  0  0  0
   49.2160   82.2220   22.0750 H   0  0  0  0  0  0  0  0  0  0  0  0
   51.7385   82.6317   24.5873 H   0  0  0  0  0  0  0  0  0  0  0  0
   52.8139   81.5636   26.5658 H   0  0  0  0  0  0  0  0  0  0  0  0
   55.9027   80.1369   26.4122 H   0  0  0  0  0  0  0  0  0  0  0  0
  1  2  1  0
  2  3  1  0
  3  4  2  0
  3  5  2  0
  3  6  1  0
  6  7  2  0
  7  8  1  0
  8  9  2  0
  9 10  1  0
 10 11  1  0
 11 12  1  0
 12 13  2  0
 13 14  1  0
 14 15  1  0
 15 16  1  0
 15 17  2  0
 15 18  2  0
 14 19  2  0
 19 20  1  0
 10 21  2  0
 21  6  1  0
 20 11  2  0
  1 22  1  0
  1 23  1  0
  1 24  1  0
  2 25  1  0
  7 26  1  0
  8 27  1  0
  9 28  1  0
 12 29  1  0
 13 30  1  0
 16 31  1  0
 16 32  1  0
 19 33  1  0
 20 34  1  0
 21 35  1  0
M  END
>  <meeko>  (1) 
{"is_sidechain": false}

>  <smiles>  (1) 
CNS(=O)(=O)c1cccc(-c2ccc(S(N)(=O)=O)cc2)c1

>  <vina_score>  (1) 
-8.466

>  <job_id>  (1) 
d7fb7a33b22eb9d7

$$$$
