
     RDKit          3D

 53 56  0  0  0  0  0  0  0  0999 V2000
   52.9040   81.0720   23.8020 C   0  0  0  0  0  0  0  0  0  0  0  0
   53.2630   79.9590   24.7190 C   0  0  0  0  0  0  0  0  0  0  0  0
   52.9350   78.7040   24.4910 N   0  0  0  0  0  0  0  0  0  0  0  0
   53.4500   77.9860   25.5270 C   0  0  0  0  0  0  0  0  0  0  0  0
   54.1080   78.7970   26.4290 C   0  0  0  0  0  0  0  0  0  0  0  0
   54.8010   78.4260   27.6540 C   0  0  0  0  0  0  0  0  0  0  0  0
   54.4170   77.3280   28.3920 C   0  0  0  0  0  0  0  0  0  0  0  0
   55.1600   77.0810   29.5190 C   0  0  0  0  0  0  0  0  0  0  0  0
   56.2050   77.8370   29.8960 N   0  0  0  0  0  0  0  0  0  0  0  0
   56.5210   78.8830   29.1030 C   0  0  0  0  0  0  0  0  0  0  0  0
   57.6830   79.7250   29.4760 C   0  0  0  0  0  0  0  0  0  0  0  0
   58.5720   80.1970   28.5310 C   0  0  0  0  0  0  0  0  0  0  0  0
   59.6020   80.9690   28.9990 C   0  0  0  0  0  0  0  0  0  0  0  0
   59.7700   81.2720   30.2960 N   0  0  0  0  0  0  0  0  0  0  0  0
   58.8780   80.7780   31.1640 C   0  0  0  0  0  0  0  0  0  0  0  0
   58.9570   81.0260   32.5310 N   0  0  0  0  0  0  0  0  0  0  0  0
   59.8260   80.6220   33.5490 C   0  0  0  0  0  0  0  0  0  0  0  0
   61.1550   80.2400   33.3350 C   0  0  0  0  0  0  0  0  0  0  0  0
   61.9860   79.8590   34.3970 C   0  0  0  0  0  0  0  0  0  0  0  0
   61.4990   79.8640   35.7070 C   0  0  0  0  0  0  0  0  0  0  0  0
   62.3380   79.4710   36.8710 C   0  0  0  0  0  0  0  0  0  0  0  0
   63.5720   80.0500   36.9850 N   0  0  0  0  0  0  0  0  0  0  0  0
   61.9350   78.6880   37.7210 O   0  0  0  0  0  0  0  0  0  0  0  0
   60.1720   80.2320   35.9390 C   0  0  0  0  0  0  0  0  0  0  0  0
   59.3510   80.6120   34.8700 C   0  0  0  0  0  0  0  0  0  0  0  0
   57.8400   80.0180   30.7930 N   0  0  0  0  0  0  0  0  0  0  0  0
   55.8450   79.2120   27.9810 N   0  0  0  0  0  0  0  0  0  0  0  0
   53.9550   80.0800   25.9120 N   0  0  0  0  0  0  0  0  0  0  0  0
   54.4230   81.3080   26.5550 C   0  0  0  0  0  0  0  0  0  0  0  0
   53.3100   82.3040   26.8950 C   0  0  0  0  0  0  0  0  0  0  0  0
   55.5550   81.9700   25.7700 C   0  0  0  0  0  0  0  0  0  0  0  0
   52.6190   81.9556   24.3919 H   0  0  0  0  0  0  0  0  0  0  0  0
   53.7684   81.3178   23.1677 H   0  0  0  0  0  0  0  0  0  0  0  0
   52.0589   80.7664   23.1677 H   0  0  0  0  0  0  0  0  0  0  0  0
   53.3535   76.8953   25.6319 H   0  0  0  0  0  0  0  0  0  0  0  0
   53.5701   76.6909   28.0972 H   0  0  0  0  0  0  0  0  0  0  0  0
   54.8860   76.2198   30.1461 H   0  0  0  0  0  0  0  0  0  0  0  0
   58.4593   79.9658   27.4615 H   0  0  0  0  0  0  0  0  0  0  0  0
   60.3300   81.3615   28.2738 H   0  0  0  0  0  0  0  0  0  0  0  0
   58.1620   81.5890   32.8000 H   0  0  0  0  0  0  0  0  0  0  0  0
   61.5562   80.2388   32.3108 H   0  0  0  0  0  0  0  0  0  0  0  0
   63.0245   79.5551   34.1991 H   0  0  0  0  0  0  0  0  0  0  0  0
   64.0640   79.8650   37.8500 H   0  0  0  0  0  0  0  0  0  0  0  0
   63.8180   80.8920   36.4850 H   0  0  0  0  0  0  0  0  0  0  0  0
   59.7709   80.2234   36.9632 H   0  0  0  0  0  0  0  0  0  0  0  0
   58.3109   80.9092   35.0698 H   0  0  0  0  0  0  0  0  0  0  0  0
   54.8287   80.9843   27.5249 H   0  0  0  0  0  0  0  0  0  0  0  0
   53.2151   82.3889   27.9876 H   0  0  0  0  0  0  0  0  0  0  0  0
   53.5567   83.2885   26.4708 H   0  0  0  0  0  0  0  0  0  0  0  0
   52.3589   81.9499   26.4708 H   0  0  0  0  0  0  0  0  0  0  0  0
   56.2864   82.3977   26.4715 H   0  0  0  0  0  0  0  0  0  0  0  0
   56.0501   81.2191   25.1368 H   0  0  0  0  0  0  0  0  0  0  0  0
   55.1433   82.7697   25.1368 H   0  0  0  0  0  0  0  0  0  0  0  0
  1  2  1  0
  2  3  2  0
  3  4  1  0
  4  5  2  0
  5  6  1  0
  6  7  1  0
  7  8  2  0
  8  9  1  0
  9 10  2  0
 10 11  1  0
 11 12  1  0
 12 13  2  0
 13 14  1  0
 14 15  2  0
 15 16  1  0
 16 17  1  0
 17 18  1  0
 18 19  2  0
 19 20  1  0
 20 21  1  0
 21 22  1  0
 21 23  2  0
 20 24  2  0
 24 25  1  0
 15 26  1  0
 10 27  1  0
  5 28  1  0
 28 29  1  0
 29 30  1  0
 29 31  1  0
 28  2  1  0
 27  6  2  0
 26 11  2  0
 25 17  2  0
  1 32  1  0
  1 33  1  0
  1 34  1  0
  4 35  1  0
  7 36  1  0
  8 37  1  0
 12 38  1  0
 13 39  1  0
 16 40  1  0
 18 41  1  0
 19 42  1  0
 22 43  1  0
 22 44  1  0
 24 45  1  0
 25 46  1  0
 29 47  1  0
 30 48  1  0
 30 49  1  0
 30 50  1  0
 31 51  1  0
 31 52  1  0
 31 53  1  0
M  END
>  <meeko>  (1) 
{"is_sidechain": false}

>  <smiles>  (1) 
Cc1ncc(-c2ccnc(-c3ccnc(Nc4ccc(C(N)=O)cc4)n3)n2)n1C(C)C

>  <vina_score>  (1) 
-8.582

>  <job_id>  (1) 
d84c3c0c5772b42a

$$$$
