
     RDKit          3D

 31 32  0  0  0  0  0  0  0  0999 V2000
   49.3620   81.0630   22.1080 N   0  0  0  0  0  0  0  0  0  0  0  0
   50.8410   81.5010   21.4460 S   0  0  0  0  0  0  0  0  0  0  0  0
   50.7960   82.9360   21.2900 O   0  0  0  0  0  0  0  0  0  0  0  0
   51.0600   80.6070   20.3340 O   0  0  0  0  0  0  0  0  0  0  0  0
   51.9610   81.0920   22.7520 C   0  0  0  0  0  0  0  0  0  0  0  0
   52.5540   82.1120   23.4980 C   0  0  0  0  0  0  0  0  0  0  0  0
   53.4190   81.7840   24.5470 C   0  0  0  0  0  0  0  0  0  0  0  0
   53.6970   80.4430   24.8680 C   0  0  0  0  0  0  0  0  0  0  0  0
   54.6070   80.1030   25.9730 C   0  0  0  0  0  0  0  0  0  0  0  0
   54.2940   79.0780   26.8800 C   0  0  0  0  0  0  0  0  0  0  0  0
   55.1590   78.7550   27.9310 C   0  0  0  0  0  0  0  0  0  0  0  0
   56.3660   79.4460   28.1020 C   0  0  0  0  0  0  0  0  0  0  0  0
   57.2910   79.1070   29.2380 C   0  0  0  0  0  0  0  0  0  0  0  0
   58.3870   78.3570   28.7690 O   0  0  0  0  0  0  0  0  0  0  0  0
   56.7220   78.3540   30.2150 F   0  0  0  0  0  0  0  0  0  0  0  0
   57.8240   80.1870   29.8650 F   0  0  0  0  0  0  0  0  0  0  0  0
   56.6820   80.4750   27.2050 C   0  0  0  0  0  0  0  0  0  0  0  0
   55.8150   80.7960   26.1540 C   0  0  0  0  0  0  0  0  0  0  0  0
   53.0760   79.4350   24.1070 C   0  0  0  0  0  0  0  0  0  0  0  0
   52.2100   79.7530   23.0570 C   0  0  0  0  0  0  0  0  0  0  0  0
   48.6050   81.3850   21.5040 H   0  0  0  0  0  0  0  0  0  0  0  0
   49.2980   81.4040   23.0670 H   0  0  0  0  0  0  0  0  0  0  0  0
   52.3426   83.1655   23.2627 H   0  0  0  0  0  0  0  0  0  0  0  0
   53.8900   82.5885   25.1310 H   0  0  0  0  0  0  0  0  0  0  0  0
   53.3534   78.5199   26.7623 H   0  0  0  0  0  0  0  0  0  0  0  0
   54.8888   77.9502   28.6305 H   0  0  0  0  0  0  0  0  0  0  0  0
   57.9460   77.7140   28.1920 H   0  0  0  0  0  0  0  0  0  0  0  0
   57.6203   81.0359   27.3279 H   0  0  0  0  0  0  0  0  0  0  0  0
   56.0843   81.6044   25.4583 H   0  0  0  0  0  0  0  0  0  0  0  0
   53.2755   78.3792   24.3425 H   0  0  0  0  0  0  0  0  0  0  0  0
   51.7281   78.9535   22.4751 H   0  0  0  0  0  0  0  0  0  0  0  0
  1  2  1  0
  2  3  2  0
  2  4  2  0
  2  5  1  0
  5  6  1  0
  6  7  2  0
  7  8  1  0
  8  9  1  0
  9 10  1  0
 10 11  2  0
 11 12  1  0
 12 13  1  0
 13 14  1  0
 13 15  1  0
 13 16  1  0
 12 17  2  0
 17 18  1  0
  8 19  2  0
 19 20  1  0
 20  5  2  0
 18  9  2  0
  1 21  1  0
  1 22  1  0
  6 23  1  0
  7 24  1  0
 10 25  1  0
 11 26  1  0
 14 27  1  0
 17 28  1  0
 18 29  1  0
 19 30  1  0
 20 31  1  0
M  END
>  <meeko>  (1) 
{"is_sidechain": false}

>  <smiles>  (1) 
NS(=O)(=O)c1ccc(-c2ccc(C(O)(F)F)cc2)cc1

>  <vina_score>  (1) 
-8.409

>  <job_id>  (1) 
d881c326d777b3ce

$$$$
