
     RDKit          3D

 55 58  0  0  0  0  0  0  0  0999 V2000
   52.5590   75.3520   27.3670 C   0  0  0  0  0  0  0  0  0  0  0  0
   52.8440   75.8570   28.6630 O   0  0  0  0  0  0  0  0  0  0  0  0
   54.0500   76.4590   28.7700 C   0  0  0  0  0  0  0  0  0  0  0  0
   55.2270   76.1080   29.4730 C   0  0  0  0  0  0  0  0  0  0  0  0
   56.2100   77.0040   29.3140 N   0  0  0  0  0  0  0  0  0  0  0  0
   55.6360   77.9120   28.4830 N   0  0  0  0  0  0  0  0  0  0  0  0
   56.2840   79.0650   28.0230 C   0  0  0  0  0  0  0  0  0  0  0  0
   57.5920   79.2630   28.4130 N   0  0  0  0  0  0  0  0  0  0  0  0
   58.2020   80.5690   28.3900 C   0  0  0  0  0  0  0  0  0  0  0  0
   58.8490   80.8450   29.7250 C   0  0  0  0  0  0  0  0  0  0  0  0
   58.3470   80.2570   30.8920 C   0  0  0  0  0  0  0  0  0  0  0  0
   58.9300   80.5230   32.1370 C   0  0  0  0  0  0  0  0  0  0  0  0
   60.0200   81.3880   32.2390 C   0  0  0  0  0  0  0  0  0  0  0  0
   60.6620   81.7100   33.4520 N   0  0  0  0  0  0  0  0  0  0  0  0
   61.4350   80.8780   34.2430 C   0  0  0  0  0  0  0  0  0  0  0  0
   61.9540   81.5810   35.4710 C   0  0  0  0  0  0  0  0  0  0  0  0
   61.7280   79.7080   34.0200 O   0  0  0  0  0  0  0  0  0  0  0  0
   60.5140   81.9880   31.0730 C   0  0  0  0  0  0  0  0  0  0  0  0
   59.9340   81.7230   29.8280 C   0  0  0  0  0  0  0  0  0  0  0  0
   55.6170   79.8830   27.2630 N   0  0  0  0  0  0  0  0  0  0  0  0
   54.3100   79.5810   26.9310 C   0  0  0  0  0  0  0  0  0  0  0  0
   53.6200   80.4380   26.1230 N   0  0  0  0  0  0  0  0  0  0  0  0
   54.2610   81.3420   25.1800 C   0  0  0  0  0  0  0  0  0  0  0  0
   54.5760   82.6620   25.8810 C   0  0  0  0  0  0  0  0  0  0  0  0
   53.3120   83.4440   26.2330 C   0  0  0  0  0  0  0  0  0  0  0  0
   52.1900   83.0960   25.4210 O   0  0  0  0  0  0  0  0  0  0  0  0
   52.5510   82.8570   24.0660 C   0  0  0  0  0  0  0  0  0  0  0  0
   53.3660   81.5730   23.9560 C   0  0  0  0  0  0  0  0  0  0  0  0
   53.6700   78.5120   27.3360 N   0  0  0  0  0  0  0  0  0  0  0  0
   54.3420   77.6480   28.1410 C   0  0  0  0  0  0  0  0  0  0  0  0
   52.0201   74.3972   27.4559 H   0  0  0  0  0  0  0  0  0  0  0  0
   51.9359   76.0752   26.8205 H   0  0  0  0  0  0  0  0  0  0  0  0
   53.5002   75.1924   26.8205 H   0  0  0  0  0  0  0  0  0  0  0  0
   55.3241   75.1982   30.0837 H   0  0  0  0  0  0  0  0  0  0  0  0
   57.9110   78.6320   29.1480 H   0  0  0  0  0  0  0  0  0  0  0  0
   58.9651   80.6035   27.5985 H   0  0  0  0  0  0  0  0  0  0  0  0
   57.4328   81.3297   28.1908 H   0  0  0  0  0  0  0  0  0  0  0  0
   57.4840   79.5777   30.8302 H   0  0  0  0  0  0  0  0  0  0  0  0
   58.5254   80.0462   33.0419 H   0  0  0  0  0  0  0  0  0  0  0  0
   60.5520   82.6630   33.7690 H   0  0  0  0  0  0  0  0  0  0  0  0
   61.5784   81.0722   36.3710 H   0  0  0  0  0  0  0  0  0  0  0  0
   63.0538   81.5585   35.4691 H   0  0  0  0  0  0  0  0  0  0  0  0
   61.6086   82.6254   35.4691 H   0  0  0  0  0  0  0  0  0  0  0  0
   61.3694   82.6766   31.1376 H   0  0  0  0  0  0  0  0  0  0  0  0
   60.3330   82.2075   28.9246 H   0  0  0  0  0  0  0  0  0  0  0  0
   52.7720   80.0000   25.7760 H   0  0  0  0  0  0  0  0  0  0  0  0
   55.1993   80.8905   24.8255 H   0  0  0  0  0  0  0  0  0  0  0  0
   55.1297   82.4480   26.8071 H   0  0  0  0  0  0  0  0  0  0  0  0
   55.1726   83.2769   25.1911 H   0  0  0  0  0  0  0  0  0  0  0  0
   53.0582   83.2432   27.2843 H   0  0  0  0  0  0  0  0  0  0  0  0
   53.5262   84.5082   26.0553 H   0  0  0  0  0  0  0  0  0  0  0  0
   51.6389   82.7614   23.4586 H   0  0  0  0  0  0  0  0  0  0  0  0
   53.1581   83.6993   23.7027 H   0  0  0  0  0  0  0  0  0  0  0  0
   52.6746   80.7230   23.8584 H   0  0  0  0  0  0  0  0  0  0  0  0
   54.0189   81.6645   23.0755 H   0  0  0  0  0  0  0  0  0  0  0  0
  1  2  1  0
  2  3  1  0
  3  4  1  0
  4  5  2  0
  5  6  1  0
  6  7  1  0
  7  8  1  0
  8  9  1  0
  9 10  1  0
 10 11  1  0
 11 12  2  0
 12 13  1  0
 13 14  1  0
 14 15  1  0
 15 16  1  0
 15 17  2  0
 13 18  2  0
 18 19  1  0
  7 20  2  0
 20 21  1  0
 21 22  1  0
 22 23  1  0
 23 24  1  0
 24 25  1  0
 25 26  1  0
 26 27  1  0
 27 28  1  0
 21 29  2  0
 29 30  1  0
 30  3  2  0
 30  6  1  0
 19 10  2  0
 28 23  1  0
  1 31  1  0
  1 32  1  0
  1 33  1  0
  4 34  1  0
  8 35  1  0
  9 36  1  0
  9 37  1  0
 11 38  1  0
 12 39  1  0
 14 40  1  0
 16 41  1  0
 16 42  1  0
 16 43  1  0
 18 44  1  0
 19 45  1  0
 22 46  1  0
 23 47  1  0
 24 48  1  0
 24 49  1  0
 25 50  1  0
 25 51  1  0
 27 52  1  0
 27 53  1  0
 28 54  1  0
 28 55  1  0
M  END
>  <meeko>  (1) 
{"is_sidechain": false}

>  <smiles>  (1) 
COc1cnn2c(NCc3ccc(NC(C)=O)cc3)nc(NC3CCOCC3)nc12

>  <vina_score>  (1) 
-8.464

>  <job_id>  (1) 
d8ac3a9e2f96e5c6

$$$$
