
     RDKit          3D

 33 36  0  0  0  0  0  0  0  0999 V2000
   51.2700   80.8700   24.6310 O   0  0  0  0  0  0  0  0  0  0  0  0
   52.0600   80.6070   23.7330 C   0  0  0  0  0  0  0  0  0  0  0  0
   53.1980   79.8390   23.8540 N   0  0  0  0  0  0  0  0  0  0  0  0
   53.5790   79.2880   25.0630 C   0  0  0  0  0  0  0  0  0  0  0  0
   52.9350   78.2330   25.6640 N   0  0  0  0  0  0  0  0  0  0  0  0
   53.4660   77.8480   26.8420 N   0  0  0  0  0  0  0  0  0  0  0  0
   54.5040   78.6790   27.0330 C   0  0  0  0  0  0  0  0  0  0  0  0
   55.4180   78.7380   28.0990 C   0  0  0  0  0  0  0  0  0  0  0  0
   56.4050   79.7490   27.9850 C   0  0  0  0  0  0  0  0  0  0  0  0
   57.4020   79.8870   29.0510 C   0  0  0  0  0  0  0  0  0  0  0  0
   57.4780   79.4630   30.3650 C   0  0  0  0  0  0  0  0  0  0  0  0
   58.7180   79.9210   30.8760 C   0  0  0  0  0  0  0  0  0  0  0  0
   59.3260   80.5960   29.8450 C   0  0  0  0  0  0  0  0  0  0  0  0
   58.5400   80.5810   28.7400 O   0  0  0  0  0  0  0  0  0  0  0  0
   56.4430   80.6380   26.8480 C   0  0  0  0  0  0  0  0  0  0  0  0
   55.5410   80.6070   25.7610 C   0  0  0  0  0  0  0  0  0  0  0  0
   54.5980   79.5980   25.9240 C   0  0  0  0  0  0  0  0  0  0  0  0
   51.8170   81.1020   22.3530 C   0  0  0  0  0  0  0  0  0  0  0  0
   52.9230   81.7320   21.5370 C   0  0  0  0  0  0  0  0  0  0  0  0
   51.8210   82.5900   22.0840 C   0  0  0  0  0  0  0  0  0  0  0  0
   53.7750   79.6720   23.0400 H   0  0  0  0  0  0  0  0  0  0  0  0
   52.1220   77.7420   25.2980 H   0  0  0  0  0  0  0  0  0  0  0  0
   55.3710   78.0514   28.9571 H   0  0  0  0  0  0  0  0  0  0  0  0
   56.7202   78.8810   30.9100 H   0  0  0  0  0  0  0  0  0  0  0  0
   59.1132   79.7674   31.8910 H   0  0  0  0  0  0  0  0  0  0  0  0
   60.3116   81.0804   29.9072 H   0  0  0  0  0  0  0  0  0  0  0  0
   57.2367   81.3993   26.8263 H   0  0  0  0  0  0  0  0  0  0  0  0
   55.5795   81.2904   24.8999 H   0  0  0  0  0  0  0  0  0  0  0  0
   51.1171   80.2695   22.1885 H   0  0  0  0  0  0  0  0  0  0  0  0
   53.9378   81.8092   21.9544 H   0  0  0  0  0  0  0  0  0  0  0  0
   53.3464   81.5564   20.5371 H   0  0  0  0  0  0  0  0  0  0  0  0
   52.0287   83.2955   22.9020 H   0  0  0  0  0  0  0  0  0  0  0  0
   51.1038   83.3024   21.6503 H   0  0  0  0  0  0  0  0  0  0  0  0
  1  2  2  0
  2  3  1  0
  3  4  1  0
  4  5  1  0
  5  6  1  0
  6  7  2  0
  7  8  1  0
  8  9  2  0
  9 10  1  0
 10 11  2  0
 11 12  1  0
 12 13  2  0
 13 14  1  0
  9 15  1  0
 15 16  2  0
 16 17  1  0
  2 18  1  0
 18 19  1  0
 19 20  1  0
 17  4  2  0
 20 18  1  0
 17  7  1  0
 14 10  1  0
  3 21  1  0
  5 22  1  0
  8 23  1  0
 11 24  1  0
 12 25  1  0
 13 26  1  0
 15 27  1  0
 16 28  1  0
 18 29  1  0
 19 30  1  0
 19 31  1  0
 20 32  1  0
 20 33  1  0
M  END
>  <meeko>  (1) 
{"is_sidechain": false}

>  <smiles>  (1) 
O=C(Nc1[nH]nc2cc(-c3ccco3)ccc12)C1CC1

>  <vina_score>  (1) 
-7.452

>  <job_id>  (1) 
d9264cdac4eb5748

$$$$
