
     RDKit          3D

 42 43  0  0  0  0  0  0  0  0999 V2000
   53.1620   78.2420   26.9350 C   0  0  0  0  0  0  0  0  0  0  0  0
   54.4310   79.0460   27.0260 C   0  0  0  0  0  0  0  0  0  0  0  0
   55.3540   78.7520   28.0460 C   0  0  0  0  0  0  0  0  0  0  0  0
   56.5500   79.4690   28.1760 C   0  0  0  0  0  0  0  0  0  0  0  0
   57.5240   79.1420   29.2840 C   0  0  0  0  0  0  0  0  0  0  0  0
   58.1800   80.3820   29.9200 C   0  0  0  0  0  0  0  0  0  0  0  0
   58.2020   80.2320   31.4440 C   0  0  0  0  0  0  0  0  0  0  0  0
   59.6030   80.6070   29.4040 C   0  0  0  0  0  0  0  0  0  0  0  0
   56.8260   80.4930   27.2660 C   0  0  0  0  0  0  0  0  0  0  0  0
   55.9200   80.7930   26.2470 C   0  0  0  0  0  0  0  0  0  0  0  0
   54.7170   80.0800   26.1080 C   0  0  0  0  0  0  0  0  0  0  0  0
   53.8030   80.4340   25.0150 C   0  0  0  0  0  0  0  0  0  0  0  0
   53.3130   79.4480   24.1420 C   0  0  0  0  0  0  0  0  0  0  0  0
   52.4510   79.7820   23.0950 C   0  0  0  0  0  0  0  0  0  0  0  0
   52.0700   81.1140   22.9210 C   0  0  0  0  0  0  0  0  0  0  0  0
   50.9800   81.5560   21.5950 S   0  0  0  0  0  0  0  0  0  0  0  0
   49.4750   81.2080   22.2670 N   0  0  0  0  0  0  0  0  0  0  0  0
   51.1530   80.6070   20.5200 O   0  0  0  0  0  0  0  0  0  0  0  0
   51.0590   82.9830   21.3930 O   0  0  0  0  0  0  0  0  0  0  0  0
   52.5560   82.1140   23.7680 C   0  0  0  0  0  0  0  0  0  0  0  0
   53.4170   81.7700   24.8110 C   0  0  0  0  0  0  0  0  0  0  0  0
   52.7999   78.0126   27.9480 H   0  0  0  0  0  0  0  0  0  0  0  0
   52.3986   78.8216   26.3952 H   0  0  0  0  0  0  0  0  0  0  0  0
   53.3600   77.3042   26.3952 H   0  0  0  0  0  0  0  0  0  0  0  0
   55.1318   77.9420   28.7563 H   0  0  0  0  0  0  0  0  0  0  0  0
   56.9841   78.5936   30.0699 H   0  0  0  0  0  0  0  0  0  0  0  0
   58.3324   78.5463   28.8350 H   0  0  0  0  0  0  0  0  0  0  0  0
   57.5790   81.2585   29.6360 H   0  0  0  0  0  0  0  0  0  0  0  0
   58.0575   81.2172   31.9115 H   0  0  0  0  0  0  0  0  0  0  0  0
   57.3935   79.5552   31.7575 H   0  0  0  0  0  0  0  0  0  0  0  0
   59.1708   79.8159   31.7575 H   0  0  0  0  0  0  0  0  0  0  0  0
   60.2894   80.7155   30.2567 H   0  0  0  0  0  0  0  0  0  0  0  0
   59.9115   79.7465   28.7922 H   0  0  0  0  0  0  0  0  0  0  0  0
   59.6310   81.5207   28.7922 H   0  0  0  0  0  0  0  0  0  0  0  0
   57.7614   81.0653   27.3529 H   0  0  0  0  0  0  0  0  0  0  0  0
   56.1522   81.6027   25.5396 H   0  0  0  0  0  0  0  0  0  0  0  0
   53.6122   78.3992   24.2851 H   0  0  0  0  0  0  0  0  0  0  0  0
   52.0760   79.0035   22.4143 H   0  0  0  0  0  0  0  0  0  0  0  0
   48.8350   80.9410   21.5170 H   0  0  0  0  0  0  0  0  0  0  0  0
   49.5160   80.5040   23.0030 H   0  0  0  0  0  0  0  0  0  0  0  0
   52.2624   83.1628   23.6138 H   0  0  0  0  0  0  0  0  0  0  0  0
   53.7983   82.5541   25.4817 H   0  0  0  0  0  0  0  0  0  0  0  0
  1  2  1  0
  2  3  1  0
  3  4  2  0
  4  5  1  0
  5  6  1  0
  6  7  1  0
  6  8  1  0
  4  9  1  0
  9 10  2  0
 10 11  1  0
 11 12  1  0
 12 13  1  0
 13 14  2  0
 14 15  1  0
 15 16  1  0
 16 17  1  0
 16 18  2  0
 16 19  2  0
 15 20  2  0
 20 21  1  0
 11  2  2  0
 21 12  2  0
  1 22  1  0
  1 23  1  0
  1 24  1  0
  3 25  1  0
  5 26  1  0
  5 27  1  0
  6 28  1  0
  7 29  1  0
  7 30  1  0
  7 31  1  0
  8 32  1  0
  8 33  1  0
  8 34  1  0
  9 35  1  0
 10 36  1  0
 13 37  1  0
 14 38  1  0
 17 39  1  0
 17 40  1  0
 20 41  1  0
 21 42  1  0
M  END
>  <meeko>  (1) 
{"is_sidechain": false}

>  <smiles>  (1) 
Cc1cc(CC(C)C)ccc1-c1ccc(S(N)(=O)=O)cc1

>  <vina_score>  (1) 
-8.574

>  <job_id>  (1) 
d92f4f64a33e4cd8

$$$$
