
     RDKit          3D

 55 59  0  0  0  0  0  0  0  0999 V2000
   53.3100   80.7200   23.4640 O   0  0  0  0  0  0  0  0  0  0  0  0
   52.7850   80.8790   24.7750 C   0  0  0  0  0  0  0  0  0  0  0  0
   53.7220   80.2790   25.7920 C   0  0  0  0  0  0  0  0  0  0  0  0
   55.0510   80.7290   25.8670 C   0  0  0  0  0  0  0  0  0  0  0  0
   55.9600   80.1830   26.7860 C   0  0  0  0  0  0  0  0  0  0  0  0
   55.5230   79.1580   27.6470 C   0  0  0  0  0  0  0  0  0  0  0  0
   56.1000   78.3660   28.6820 C   0  0  0  0  0  0  0  0  0  0  0  0
   57.3880   78.4460   29.1060 N   0  0  0  0  0  0  0  0  0  0  0  0
   58.0580   79.5500   29.6830 C   0  0  0  0  0  0  0  0  0  0  0  0
   58.9350   80.2760   28.8780 C   0  0  0  0  0  0  0  0  0  0  0  0
   59.6370   81.3520   29.4160 C   0  0  0  0  0  0  0  0  0  0  0  0
   59.4540   81.6930   30.7550 C   0  0  0  0  0  0  0  0  0  0  0  0
   58.5840   80.9060   31.5070 C   0  0  0  0  0  0  0  0  0  0  0  0
   57.8960   79.8570   30.9860 N   0  0  0  0  0  0  0  0  0  0  0  0
   58.3160   81.2300   32.9510 C   0  0  0  0  0  0  0  0  0  0  0  0
   59.3330   82.2240   33.5240 C   0  0  0  0  0  0  0  0  0  0  0  0
   59.6640   83.3540   32.6340 N   0  0  0  0  0  0  0  0  0  0  0  0
   58.5160   84.2500   32.3540 C   0  0  0  0  0  0  0  0  0  0  0  0
   58.8090   85.7740   32.3720 C   0  0  2  0  0  0  0  0  0  0  0  0
   57.8100   86.5730   33.2500 C   0  0  0  0  0  0  0  0  0  0  0  0
   56.6010   86.9810   32.5200 N   0  0  0  0  0  0  0  0  0  0  0  0
   56.9830   87.7360   31.3100 C   0  0  0  0  0  0  0  0  0  0  0  0
   58.4640   87.6130   30.9020 C   0  0  0  0  0  0  0  0  0  0  0  0
   58.9200   86.2640   31.0200 O   0  0  0  0  0  0  0  0  0  0  0  0
   60.2410   82.8110   31.3870 C   0  0  0  0  0  0  0  0  0  0  0  0
   55.1080   77.5170   29.1170 C   0  0  0  0  0  0  0  0  0  0  0  0
   53.9530   77.7320   28.4310 O   0  0  0  0  0  0  0  0  0  0  0  0
   54.2040   78.7290   27.5400 C   0  0  0  0  0  0  0  0  0  0  0  0
   53.2780   79.2500   26.6380 C   0  0  0  0  0  0  0  0  0  0  0  0
   53.5320   81.6060   23.1280 H   0  0  0  0  0  0  0  0  0  0  0  0
   52.6579   81.9508   24.9871 H   0  0  0  0  0  0  0  0  0  0  0  0
   51.8148   80.3642   24.8360 H   0  0  0  0  0  0  0  0  0  0  0  0
   55.3866   81.5279   25.1895 H   0  0  0  0  0  0  0  0  0  0  0  0
   56.9961   80.5494   26.8330 H   0  0  0  0  0  0  0  0  0  0  0  0
   58.0560   77.8150   28.6790 H   0  0  0  0  0  0  0  0  0  0  0  0
   59.0719   80.0000   27.8220 H   0  0  0  0  0  0  0  0  0  0  0  0
   60.3316   81.9291   28.7880 H   0  0  0  0  0  0  0  0  0  0  0  0
   57.3096   81.6662   33.0346 H   0  0  0  0  0  0  0  0  0  0  0  0
   58.3986   80.2958   33.5259 H   0  0  0  0  0  0  0  0  0  0  0  0
   58.9219   82.6336   34.4585 H   0  0  0  0  0  0  0  0  0  0  0  0
   60.2669   81.6614   33.6702 H   0  0  0  0  0  0  0  0  0  0  0  0
   58.1285   83.9956   31.3564 H   0  0  0  0  0  0  0  0  0  0  0  0
   57.8053   84.0796   33.1761 H   0  0  0  0  0  0  0  0  0  0  0  0
   59.7793   85.9374   32.8638 H   0  0  0  0  0  0  0  0  0  0  0  0
   57.5099   85.9434   34.1006 H   0  0  0  0  0  0  0  0  0  0  0  0
   58.3212   87.4902   33.5776 H   0  0  0  0  0  0  0  0  0  0  0  0
   56.1640   86.1050   32.2070 H   0  0  0  0  0  0  0  0  0  0  0  0
   56.3680   87.3727   30.4735 H   0  0  0  0  0  0  0  0  0  0  0  0
   56.8181   88.7974   31.5469 H   0  0  0  0  0  0  0  0  0  0  0  0
   58.5774   87.9405   29.8580 H   0  0  0  0  0  0  0  0  0  0  0  0
   59.0647   88.2447   31.5729 H   0  0  0  0  0  0  0  0  0  0  0  0
   60.3127   83.6320   30.6585 H   0  0  0  0  0  0  0  0  0  0  0  0
   61.2168   82.3833   31.6607 H   0  0  0  0  0  0  0  0  0  0  0  0
   55.2322   76.7664   29.9115 H   0  0  0  0  0  0  0  0  0  0  0  0
   52.2460   78.8722   26.5910 H   0  0  0  0  0  0  0  0  0  0  0  0
  1  2  1  0
  2  3  1  0
  3  4  2  0
  4  5  1  0
  5  6  2  0
  6  7  1  0
  7  8  1  0
  8  9  1  0
  9 10  1  0
 10 11  2  0
 11 12  1  0
 12 13  2  0
 13 14  1  0
 13 15  1  0
 15 16  1  0
 16 17  1  0
 17 18  1  0
 18 19  1  0
 19 20  1  0
 20 21  1  0
 21 22  1  0
 22 23  1  0
 23 24  1  0
 17 25  1  0
  7 26  2  0
 26 27  1  0
 27 28  1  0
 28 29  2  0
 29  3  1  0
 28  6  1  0
 14  9  2  0
 24 19  1  0
 25 12  1  0
  1 30  1  0
  2 31  1  0
  2 32  1  0
  4 33  1  0
  5 34  1  0
  8 35  1  0
 10 36  1  0
 11 37  1  0
 15 38  1  0
 15 39  1  0
 16 40  1  0
 16 41  1  0
 18 42  1  0
 18 43  1  0
 19 44  1  1
 20 45  1  0
 20 46  1  0
 21 47  1  0
 22 48  1  0
 22 49  1  0
 23 50  1  0
 23 51  1  0
 25 52  1  0
 25 53  1  0
 26 54  1  0
 29 55  1  0
M  END
>  <meeko>  (1) 
{"is_sidechain": false}

>  <smiles>  (1) 
OCc1ccc2c(Nc3ccc4c(n3)CCN(C[C@@H]3CNCCO3)C4)coc2c1

>  <vina_score>  (1) 
-8.758

>  <job_id>  (1) 
d959ece6819c2ba4

$$$$
