
     RDKit          3D

 41 43  0  0  0  0  0  0  0  0999 V2000
   60.3810   83.5600   30.8260 O   0  0  0  0  0  0  0  0  0  0  0  0
   61.1750   82.6430   30.6440 C   0  0  0  0  0  0  0  0  0  0  0  0
   60.7880   81.3570   30.3280 N   0  0  0  0  0  0  0  0  0  0  0  0
   59.3940   81.0210   30.0610 C   0  0  0  0  0  0  0  0  0  0  0  0
   58.9350   79.8720   30.9590 C   0  0  0  0  0  0  0  0  0  0  0  0
   57.4910   79.4840   30.6480 C   0  0  0  0  0  0  0  0  0  0  0  0
   57.3670   79.1610   29.2140 N   0  0  0  0  0  0  0  0  0  0  0  0
   56.1730   78.4760   28.9140 C   0  0  0  0  0  0  0  0  0  0  0  0
   55.9290   77.2310   29.5200 C   0  0  0  0  0  0  0  0  0  0  0  0
   54.7650   76.5020   29.2590 C   0  0  0  0  0  0  0  0  0  0  0  0
   53.8160   77.0040   28.3760 C   0  0  0  0  0  0  0  0  0  0  0  0
   54.0360   78.2290   27.7560 C   0  0  0  0  0  0  0  0  0  0  0  0
   55.2050   78.9530   28.0210 C   0  0  0  0  0  0  0  0  0  0  0  0
   57.7470   80.2660   28.3210 C   0  0  0  0  0  0  0  0  0  0  0  0
   59.1980   80.6600   28.5870 C   0  0  0  0  0  0  0  0  0  0  0  0
   62.6370   82.8820   30.7890 C   0  0  0  0  0  0  0  0  0  0  0  0
   63.5420   81.8410   31.0330 C   0  0  0  0  0  0  0  0  0  0  0  0
   64.9060   82.1170   31.1580 C   0  0  0  0  0  0  0  0  0  0  0  0
   65.3700   83.4270   31.0310 C   0  0  0  0  0  0  0  0  0  0  0  0
   64.4740   84.4640   30.7710 C   0  0  0  0  0  0  0  0  0  0  0  0
   63.1110   84.1920   30.6450 C   0  0  0  0  0  0  0  0  0  0  0  0
   61.4860   80.6390   30.1950 H   0  0  0  0  0  0  0  0  0  0  0  0
   58.7786   81.9045   30.2861 H   0  0  0  0  0  0  0  0  0  0  0  0
   59.5863   79.0014   30.7919 H   0  0  0  0  0  0  0  0  0  0  0  0
   58.9942   80.1989   32.0076 H   0  0  0  0  0  0  0  0  0  0  0  0
   57.2101   78.6055   31.2474 H   0  0  0  0  0  0  0  0  0  0  0  0
   56.8244   80.3238   30.8939 H   0  0  0  0  0  0  0  0  0  0  0  0
   56.6734   76.8198   30.2177 H   0  0  0  0  0  0  0  0  0  0  0  0
   54.6003   75.5324   29.7517 H   0  0  0  0  0  0  0  0  0  0  0  0
   52.8971   76.4359   28.1691 H   0  0  0  0  0  0  0  0  0  0  0  0
   53.2894   78.6307   27.0551 H   0  0  0  0  0  0  0  0  0  0  0  0
   55.3666   79.9173   27.5169 H   0  0  0  0  0  0  0  0  0  0  0  0
   57.6403   79.9447   27.2744 H   0  0  0  0  0  0  0  0  0  0  0  0
   57.0924   81.1300   28.5081 H   0  0  0  0  0  0  0  0  0  0  0  0
   59.8551   79.8159   28.3306 H   0  0  0  0  0  0  0  0  0  0  0  0
   59.4475   81.5359   27.9701 H   0  0  0  0  0  0  0  0  0  0  0  0
   63.1790   80.8068   31.1262 H   0  0  0  0  0  0  0  0  0  0  0  0
   65.6154   81.3002   31.3569 H   0  0  0  0  0  0  0  0  0  0  0  0
   66.4436   83.6421   31.1361 H   0  0  0  0  0  0  0  0  0  0  0  0
   64.8415   85.4954   30.6654 H   0  0  0  0  0  0  0  0  0  0  0  0
   62.4064   85.0094   30.4318 H   0  0  0  0  0  0  0  0  0  0  0  0
  1  2  2  0
  2  3  1  0
  3  4  1  0
  4  5  1  0
  5  6  1  0
  6  7  1  0
  7  8  1  0
  8  9  2  0
  9 10  1  0
 10 11  2  0
 11 12  1  0
 12 13  2  0
  7 14  1  0
 14 15  1  0
  2 16  1  0
 16 17  2  0
 17 18  1  0
 18 19  2  0
 19 20  1  0
 20 21  2  0
 15  4  1  0
 21 16  1  0
 13  8  1  0
  3 22  1  0
  4 23  1  0
  5 24  1  0
  5 25  1  0
  6 26  1  0
  6 27  1  0
  9 28  1  0
 10 29  1  0
 11 30  1  0
 12 31  1  0
 13 32  1  0
 14 33  1  0
 14 34  1  0
 15 35  1  0
 15 36  1  0
 17 37  1  0
 18 38  1  0
 19 39  1  0
 20 40  1  0
 21 41  1  0
M  END
>  <meeko>  (1) 
{"is_sidechain": false}

>  <smiles>  (1) 
O=C(NC1CCN(c2ccccc2)CC1)c1ccccc1

>  <vina_score>  (1) 
-7.489

>  <job_id>  (1) 
d9c6b4092ebac412

$$$$
