
     RDKit          3D

 41 42  0  0  0  0  0  0  0  0999 V2000
   52.8840   80.1020   26.5160 C   0  0  0  0  0  0  0  0  0  0  0  0
   53.8200   78.8730   26.4880 C   0  0  0  0  0  0  0  0  0  0  0  0
   53.0990   77.6710   27.1350 C   0  0  0  0  0  0  0  0  0  0  0  0
   54.0600   78.5170   25.0040 C   0  0  0  0  0  0  0  0  0  0  0  0
   55.1080   79.1870   27.2690 C   0  0  0  0  0  0  0  0  0  0  0  0
   55.9760   80.2310   26.9120 C   0  0  0  0  0  0  0  0  0  0  0  0
   57.1420   80.4890   27.6450 C   0  0  0  0  0  0  0  0  0  0  0  0
   57.4850   79.7090   28.7490 C   0  0  0  0  0  0  0  0  0  0  0  0
   58.6470   80.0160   29.4790 N   0  0  0  0  0  0  0  0  0  0  0  0
   58.5260   81.1160   30.0620 N   0  0  0  0  0  0  0  0  0  0  0  0
   59.6850   81.4120   30.8020 C   0  0  0  0  0  0  0  0  0  0  0  0
   59.7660   80.9990   32.1380 C   0  0  0  0  0  0  0  0  0  0  0  0
   60.8900   81.3010   32.9120 C   0  0  0  0  0  0  0  0  0  0  0  0
   61.9350   82.0370   32.3480 C   0  0  0  0  0  0  0  0  0  0  0  0
   63.3740   82.3940   33.3130 S   0  0  0  0  0  0  0  0  0  0  0  0
   63.4350   81.0710   34.3450 N   0  0  0  0  0  0  0  0  0  0  0  0
   64.5450   82.2990   32.4750 O   0  0  0  0  0  0  0  0  0  0  0  0
   63.1110   83.5400   34.1520 O   0  0  0  0  0  0  0  0  0  0  0  0
   61.8730   82.4570   31.0170 C   0  0  0  0  0  0  0  0  0  0  0  0
   60.7430   82.1510   30.2530 C   0  0  0  0  0  0  0  0  0  0  0  0
   56.6230   78.6750   29.1250 C   0  0  0  0  0  0  0  0  0  0  0  0
   55.4570   78.4160   28.3940 C   0  0  0  0  0  0  0  0  0  0  0  0
   52.6733   80.3787   27.5596 H   0  0  0  0  0  0  0  0  0  0  0  0
   53.3707   80.9453   26.0042 H   0  0  0  0  0  0  0  0  0  0  0  0
   51.9417   79.8570   26.0042 H   0  0  0  0  0  0  0  0  0  0  0  0
   53.1513   77.7582   28.2303 H   0  0  0  0  0  0  0  0  0  0  0  0
   52.0458   77.6611   26.8179 H   0  0  0  0  0  0  0  0  0  0  0  0
   53.5862   76.7371   26.8179 H   0  0  0  0  0  0  0  0  0  0  0  0
   54.6739   77.6065   24.9400 H   0  0  0  0  0  0  0  0  0  0  0  0
   53.0938   78.3435   24.5077 H   0  0  0  0  0  0  0  0  0  0  0  0
   54.5832   79.3476   24.5077 H   0  0  0  0  0  0  0  0  0  0  0  0
   55.7363   80.8582   26.0407 H   0  0  0  0  0  0  0  0  0  0  0  0
   57.7972   81.3200   27.3449 H   0  0  0  0  0  0  0  0  0  0  0  0
   58.9359   80.4307   32.5829 H   0  0  0  0  0  0  0  0  0  0  0  0
   60.9513   80.9620   33.9566 H   0  0  0  0  0  0  0  0  0  0  0  0
   63.3330   81.3820   35.3110 H   0  0  0  0  0  0  0  0  0  0  0  0
   62.7430   80.3780   34.0600 H   0  0  0  0  0  0  0  0  0  0  0  0
   62.7057   83.0233   30.5743 H   0  0  0  0  0  0  0  0  0  0  0  0
   60.6830   82.4937   29.2095 H   0  0  0  0  0  0  0  0  0  0  0  0
   56.8629   78.0585   30.0039 H   0  0  0  0  0  0  0  0  0  0  0  0
   54.7990   77.5915   28.7059 H   0  0  0  0  0  0  0  0  0  0  0  0
  1  2  1  0
  2  3  1  0
  2  4  1  0
  2  5  1  0
  5  6  1  0
  6  7  2  0
  7  8  1  0
  8  9  1  0
  9 10  2  3
 10 11  1  0
 11 12  1  0
 12 13  2  0
 13 14  1  0
 14 15  1  0
 15 16  1  0
 15 17  2  0
 15 18  2  0
 14 19  2  0
 19 20  1  0
  8 21  2  0
 21 22  1  0
 22  5  2  0
 20 11  2  0
  1 23  1  0
  1 24  1  0
  1 25  1  0
  3 26  1  0
  3 27  1  0
  3 28  1  0
  4 29  1  0
  4 30  1  0
  4 31  1  0
  6 32  1  0
  7 33  1  0
 12 34  1  0
 13 35  1  0
 16 36  1  0
 16 37  1  0
 19 38  1  0
 20 39  1  0
 21 40  1  0
 22 41  1  0
M  END
>  <meeko>  (1) 
{"is_sidechain": false}

>  <smiles>  (1) 
CC(C)(C)c1ccc(N=Nc2ccc(S(N)(=O)=O)cc2)cc1

>  <vina_score>  (1) 
-7.274

>  <job_id>  (1) 
da24a4c3288ceaa3

$$$$
