
     RDKit          3D

 46 48  0  0  0  0  0  0  0  0999 V2000
   65.1930   81.9960   31.1240 C   0  0  0  0  0  0  0  0  0  0  0  0
   64.0780   83.0200   31.0200 C   0  0  0  0  0  0  0  0  0  0  0  0
   62.8220   82.4060   30.6620 N   0  0  0  0  0  0  0  0  0  0  0  0
   61.6870   82.5100   31.4370 C   0  0  0  0  0  0  0  0  0  0  0  0
   61.6080   83.1830   32.4580 O   0  0  0  0  0  0  0  0  0  0  0  0
   60.5220   81.7120   30.9300 C   0  0  0  0  0  0  0  0  0  0  0  0
   59.6940   81.0510   31.8260 C   0  0  0  0  0  0  0  0  0  0  0  0
   58.6240   80.3180   31.3140 C   0  0  0  0  0  0  0  0  0  0  0  0
   58.4010   80.2540   29.9320 C   0  0  0  0  0  0  0  0  0  0  0  0
   57.2850   79.4910   29.3620 C   0  0  0  0  0  0  0  0  0  0  0  0
   56.7120   78.4140   30.0470 C   0  0  0  0  0  0  0  0  0  0  0  0
   55.6440   77.6880   29.4970 C   0  0  0  0  0  0  0  0  0  0  0  0
   55.1000   77.9970   28.2420 C   0  0  0  0  0  0  0  0  0  0  0  0
   54.0450   77.2740   27.7010 N   0  0  0  0  0  0  0  0  0  0  0  0
   53.6710   75.9650   28.2450 C   0  0  0  0  0  0  0  0  0  0  0  0
   52.1850   75.6960   28.0190 C   0  0  0  0  0  0  0  0  0  0  0  0
   51.8090   75.7320   26.5400 C   0  0  0  0  0  0  0  0  0  0  0  0
   52.7170   76.6480   25.7250 C   0  0  0  0  0  0  0  0  0  0  0  0
   53.2830   77.7950   26.5600 C   0  0  0  0  0  0  0  0  0  0  0  0
   55.6830   79.0770   27.5650 C   0  0  0  0  0  0  0  0  0  0  0  0
   56.7480   79.8120   28.1100 C   0  0  0  0  0  0  0  0  0  0  0  0
   59.2990   80.9610   29.1250 C   0  0  0  0  0  0  0  0  0  0  0  0
   60.3520   81.6840   29.5780 N   0  0  0  0  0  0  0  0  0  0  0  0
   65.4101   81.7966   32.1838 H   0  0  0  0  0  0  0  0  0  0  0  0
   64.8811   81.0630   30.6318 H   0  0  0  0  0  0  0  0  0  0  0  0
   66.0961   82.3860   30.6318 H   0  0  0  0  0  0  0  0  0  0  0  0
   63.9647   83.5237   31.9913 H   0  0  0  0  0  0  0  0  0  0  0  0
   64.3452   83.7395   30.2320 H   0  0  0  0  0  0  0  0  0  0  0  0
   62.7680   81.7630   29.8750 H   0  0  0  0  0  0  0  0  0  0  0  0
   59.8765   81.1037   32.9095 H   0  0  0  0  0  0  0  0  0  0  0  0
   57.9494   79.7856   32.0006 H   0  0  0  0  0  0  0  0  0  0  0  0
   57.1056   78.1311   31.0344 H   0  0  0  0  0  0  0  0  0  0  0  0
   55.2200   76.8495   30.0690 H   0  0  0  0  0  0  0  0  0  0  0  0
   54.2606   75.1831   27.7440 H   0  0  0  0  0  0  0  0  0  0  0  0
   53.8730   75.9585   29.3263 H   0  0  0  0  0  0  0  0  0  0  0  0
   51.9399   74.7024   28.4224 H   0  0  0  0  0  0  0  0  0  0  0  0
   51.6178   76.4878   28.5302 H   0  0  0  0  0  0  0  0  0  0  0  0
   51.8810   74.7124   26.1334 H   0  0  0  0  0  0  0  0  0  0  0  0
   50.7851   76.1273   26.4665 H   0  0  0  0  0  0  0  0  0  0  0  0
   53.5530   76.0543   25.3267 H   0  0  0  0  0  0  0  0  0  0  0  0
   52.1143   77.0862   24.9158 H   0  0  0  0  0  0  0  0  0  0  0  0
   53.9462   78.4073   25.9313 H   0  0  0  0  0  0  0  0  0  0  0  0
   52.4490   78.4045   26.9381 H   0  0  0  0  0  0  0  0  0  0  0  0
   55.2938   79.3577   26.5752 H   0  0  0  0  0  0  0  0  0  0  0  0
   57.1680   80.6556   27.5426 H   0  0  0  0  0  0  0  0  0  0  0  0
   59.1377   80.9274   28.0374 H   0  0  0  0  0  0  0  0  0  0  0  0
  1  2  1  0
  2  3  1  0
  3  4  1  0
  4  5  2  0
  4  6  1  0
  6  7  2  0
  7  8  1  0
  8  9  2  0
  9 10  1  0
 10 11  1  0
 11 12  2  0
 12 13  1  0
 13 14  1  0
 14 15  1  0
 15 16  1  0
 16 17  1  0
 17 18  1  0
 18 19  1  0
 13 20  2  0
 20 21  1  0
  9 22  1  0
 22 23  2  0
 23  6  1  0
 21 10  2  0
 19 14  1  0
  1 24  1  0
  1 25  1  0
  1 26  1  0
  2 27  1  0
  2 28  1  0
  3 29  1  0
  7 30  1  0
  8 31  1  0
 11 32  1  0
 12 33  1  0
 15 34  1  0
 15 35  1  0
 16 36  1  0
 16 37  1  0
 17 38  1  0
 17 39  1  0
 18 40  1  0
 18 41  1  0
 19 42  1  0
 19 43  1  0
 20 44  1  0
 21 45  1  0
 22 46  1  0
M  END
>  <meeko>  (1) 
{"is_sidechain": false}

>  <smiles>  (1) 
CCNC(=O)c1ccc(-c2ccc(N3CCCCC3)cc2)cn1

>  <vina_score>  (1) 
-7.329

>  <job_id>  (1) 
da432881097b0bb2

$$$$
