
     RDKit          3D

 51 53  0  0  0  0  0  0  0  0999 V2000
   52.9340   81.7320   21.3630 C   0  0  0  0  0  0  0  0  0  0  0  0
   52.2030   81.2110   22.6030 C   0  0  0  0  0  0  0  0  0  0  0  0
   50.6940   81.3560   22.4050 C   0  0  0  0  0  0  0  0  0  0  0  0
   52.6510   81.9750   23.8520 C   0  0  0  0  0  0  0  0  0  0  0  0
   52.5950   83.2060   23.8810 O   0  0  0  0  0  0  0  0  0  0  0  0
   53.1010   81.2520   24.9520 N   0  0  0  0  0  0  0  0  0  0  0  0
   52.2590   80.5040   25.8870 C   0  0  0  0  0  0  0  0  0  0  0  0
   52.9320   79.2030   26.3210 C   0  0  0  0  0  0  0  0  0  0  0  0
   54.3250   79.4490   26.7990 C   0  0  0  0  0  0  0  0  0  0  0  0
   54.9840   78.5920   27.6490 C   0  0  0  0  0  0  0  0  0  0  0  0
   56.2460   78.7880   28.0730 N   0  0  0  0  0  0  0  0  0  0  0  0
   56.8880   79.8780   27.6220 C   0  0  0  0  0  0  0  0  0  0  0  0
   58.1850   80.0310   28.0990 N   0  0  0  0  0  0  0  0  0  0  0  0
   58.7340   80.4980   29.2970 C   0  0  0  0  0  0  0  0  0  0  0  0
   59.7310   81.4720   29.3740 C   0  0  0  0  0  0  0  0  0  0  0  0
   60.2330   81.9060   30.6090 C   0  0  0  0  0  0  0  0  0  0  0  0
   59.7470   81.3780   31.8100 C   0  0  0  0  0  0  0  0  0  0  0  0
   60.2760   81.8310   33.1580 C   0  0  0  0  0  0  0  0  0  0  0  0
   61.8070   81.8340   33.1880 C   0  0  0  0  0  0  0  0  0  0  0  0
   59.7100   80.9830   34.2990 C   0  0  0  0  0  0  0  0  0  0  0  0
   58.7450   80.4050   31.7420 C   0  0  0  0  0  0  0  0  0  0  0  0
   58.2480   79.9760   30.5050 C   0  0  0  0  0  0  0  0  0  0  0  0
   56.3270   80.7570   26.7790 N   0  0  0  0  0  0  0  0  0  0  0  0
   55.0590   80.5360   26.3660 C   0  0  0  0  0  0  0  0  0  0  0  0
   54.4660   81.5470   25.4100 C   0  0  0  0  0  0  0  0  0  0  0  0
   53.7932   82.3444   21.6741 H   0  0  0  0  0  0  0  0  0  0  0  0
   53.2883   80.8816   20.7619 H   0  0  0  0  0  0  0  0  0  0  0  0
   52.2458   82.3444   20.7619 H   0  0  0  0  0  0  0  0  0  0  0  0
   52.4498   80.1483   22.7438 H   0  0  0  0  0  0  0  0  0  0  0  0
   50.1984   81.4036   23.3859 H   0  0  0  0  0  0  0  0  0  0  0  0
   50.4848   82.2784   21.8433 H   0  0  0  0  0  0  0  0  0  0  0  0
   50.3130   80.4903   21.8433 H   0  0  0  0  0  0  0  0  0  0  0  0
   52.0718   81.1245   26.7758 H   0  0  0  0  0  0  0  0  0  0  0  0
   51.3148   80.2545   25.3808 H   0  0  0  0  0  0  0  0  0  0  0  0
   52.3475   78.7512   27.1360 H   0  0  0  0  0  0  0  0  0  0  0  0
   52.9754   78.5273   25.4541 H   0  0  0  0  0  0  0  0  0  0  0  0
   54.4502   77.6972   28.0017 H   0  0  0  0  0  0  0  0  0  0  0  0
   58.8310   79.7680   27.3710 H   0  0  0  0  0  0  0  0  0  0  0  0
   60.1310   81.9080   28.4467 H   0  0  0  0  0  0  0  0  0  0  0  0
   61.0209   82.6732   30.6341 H   0  0  0  0  0  0  0  0  0  0  0  0
   59.9340   82.8657   33.3078 H   0  0  0  0  0  0  0  0  0  0  0  0
   62.1533   81.8347   34.2321 H   0  0  0  0  0  0  0  0  0  0  0  0
   62.1855   80.9366   32.6767 H   0  0  0  0  0  0  0  0  0  0  0  0
   62.1820   82.7329   32.6767 H   0  0  0  0  0  0  0  0  0  0  0  0
   60.0037   81.4230   35.2634 H   0  0  0  0  0  0  0  0  0  0  0  0
   58.6127   80.9568   34.2269 H   0  0  0  0  0  0  0  0  0  0  0  0
   60.1067   79.9596   34.2269 H   0  0  0  0  0  0  0  0  0  0  0  0
   58.3429   79.9720   32.6698 H   0  0  0  0  0  0  0  0  0  0  0  0
   57.4576   79.2114   30.4800 H   0  0  0  0  0  0  0  0  0  0  0  0
   54.4515   82.5243   25.9147 H   0  0  0  0  0  0  0  0  0  0  0  0
   55.1001   81.5247   24.5114 H   0  0  0  0  0  0  0  0  0  0  0  0
  1  2  1  0
  2  3  1  0
  2  4  1  0
  4  5  2  0
  4  6  1  0
  6  7  1  0
  7  8  1  0
  8  9  1  0
  9 10  2  0
 10 11  1  0
 11 12  2  0
 12 13  1  0
 13 14  1  0
 14 15  1  0
 15 16  2  0
 16 17  1  0
 17 18  1  0
 18 19  1  0
 18 20  1  0
 17 21  2  0
 21 22  1  0
 12 23  1  0
 23 24  2  0
 24 25  1  0
 25  6  1  0
 24  9  1  0
 22 14  2  0
  1 26  1  0
  1 27  1  0
  1 28  1  0
  2 29  1  0
  3 30  1  0
  3 31  1  0
  3 32  1  0
  7 33  1  0
  7 34  1  0
  8 35  1  0
  8 36  1  0
 10 37  1  0
 13 38  1  0
 15 39  1  0
 16 40  1  0
 18 41  1  0
 19 42  1  0
 19 43  1  0
 19 44  1  0
 20 45  1  0
 20 46  1  0
 20 47  1  0
 21 48  1  0
 22 49  1  0
 25 50  1  0
 25 51  1  0
M  END
>  <meeko>  (1) 
{"is_sidechain": false}

>  <smiles>  (1) 
CC(C)C(=O)N1CCc2cnc(Nc3ccc(C(C)C)cc3)nc2C1

>  <vina_score>  (1) 
-8.443

>  <job_id>  (1) 
da50d765f7091bce

$$$$
