
     RDKit          3D

 65 66  0  0  0  0  0  0  0  0999 V2000
   53.7570   78.0430   24.2780 C   0  0  0  0  0  0  0  0  0  0  0  0
   53.9140   79.5710   24.3400 C   0  0  2  0  0  0  0  0  0  0  0  0
   54.3650   80.0710   25.7480 C   0  0  2  0  0  0  0  0  0  0  0  0
   53.7420   79.1820   26.7040 O   0  0  0  0  0  0  0  0  0  0  0  0
   54.5820   78.4550   27.5180 C   0  0  0  0  0  0  0  0  0  0  0  0
   55.8310   78.9030   27.7330 N   0  0  0  0  0  0  0  0  0  0  0  0
   56.6180   78.1960   28.5530 C   0  0  0  0  0  0  0  0  0  0  0  0
   57.8880   78.7270   28.7470 N   0  0  0  0  0  0  0  0  0  0  0  0
   58.3830   79.8430   29.4290 C   0  0  0  0  0  0  0  0  0  0  0  0
   58.9570   80.9520   28.7960 C   0  0  0  0  0  0  0  0  0  0  0  0
   59.4500   82.0360   29.5310 C   0  0  0  0  0  0  0  0  0  0  0  0
   59.3920   82.0090   30.9240 C   0  0  0  0  0  0  0  0  0  0  0  0
   60.0010   83.3900   31.8670 S   0  0  0  0  0  0  0  0  0  0  0  0
   59.3930   83.2890   33.1820 O   0  0  0  0  0  0  0  0  0  0  0  0
   59.7680   84.5830   31.0740 O   0  0  0  0  0  0  0  0  0  0  0  0
   61.7740   83.1390   32.0310 C   0  0  1  0  0  0  0  0  0  0  0  0
   62.0730   81.9510   32.9540 C   0  0  0  0  0  0  0  0  0  0  0  0
   62.5010   83.0030   30.6790 C   0  0  1  0  0  0  0  0  0  0  0  0
   63.5640   84.0660   30.4230 C   0  0  0  0  0  0  0  0  0  0  0  0
   63.1690   81.7320   30.6450 O   0  0  0  0  0  0  0  0  0  0  0  0
   58.7990   80.9320   31.5800 C   0  0  0  0  0  0  0  0  0  0  0  0
   58.3090   79.8570   30.8330 C   0  0  0  0  0  0  0  0  0  0  0  0
   56.2090   77.0710   29.1540 N   0  0  0  0  0  0  0  0  0  0  0  0
   54.9490   76.6570   28.9140 C   0  0  0  0  0  0  0  0  0  0  0  0
   54.0730   77.3230   28.0950 C   0  0  0  0  0  0  0  0  0  0  0  0
   52.6880   76.8560   27.8560 C   0  0  0  0  0  0  0  0  0  0  0  0
   52.3800   76.7380   26.5350 F   0  0  0  0  0  0  0  0  0  0  0  0
   51.7470   77.6780   28.3950 F   0  0  0  0  0  0  0  0  0  0  0  0
   52.4430   75.6260   28.3950 F   0  0  0  0  0  0  0  0  0  0  0  0
   54.0080   81.5540   26.0380 C   0  0  1  0  0  0  0  0  0  0  0  0
   53.3100   81.8080   27.3690 C   0  0  0  0  0  0  0  0  0  0  0  0
   55.2080   82.3370   26.0560 O   0  0  0  0  0  0  0  0  0  0  0  0
   56.3090   81.5920   25.5680 F   0  0  0  0  0  0  0  0  0  0  0  0
   52.6450   80.2740   23.7960 C   0  0  1  0  0  0  0  0  0  0  0  0
   52.9350   81.3570   22.7640 C   0  0  0  0  0  0  0  0  0  0  0  0
   51.8100   79.3140   23.1440 O   0  0  0  0  0  0  0  0  0  0  0  0
   53.7153   77.6369   25.2995 H   0  0  0  0  0  0  0  0  0  0  0  0
   52.8282   77.7912   23.7451 H   0  0  0  0  0  0  0  0  0  0  0  0
   54.6151   77.6076   23.7451 H   0  0  0  0  0  0  0  0  0  0  0  0
   54.7400   79.8582   23.6728 H   0  0  0  0  0  0  0  0  0  0  0  0
   55.4629   80.0477   25.8110 H   0  0  0  0  0  0  0  0  0  0  0  0
   58.5620   78.1390   28.2760 H   0  0  0  0  0  0  0  0  0  0  0  0
   59.0218   80.9717   27.6981 H   0  0  0  0  0  0  0  0  0  0  0  0
   59.8811   82.9051   29.0125 H   0  0  0  0  0  0  0  0  0  0  0  0
   62.1770   84.0518   32.4939 H   0  0  0  0  0  0  0  0  0  0  0  0
   61.9922   82.2722   34.0029 H   0  0  0  0  0  0  0  0  0  0  0  0
   61.3497   81.1452   32.7605 H   0  0  0  0  0  0  0  0  0  0  0  0
   63.0916   81.5836   32.7605 H   0  0  0  0  0  0  0  0  0  0  0  0
   61.7246   83.1150   29.9079 H   0  0  0  0  0  0  0  0  0  0  0  0
   63.9427   84.4447   31.3838 H   0  0  0  0  0  0  0  0  0  0  0  0
   64.3931   83.6250   29.8503 H   0  0  0  0  0  0  0  0  0  0  0  0
   63.1230   84.8951   29.8503 H   0  0  0  0  0  0  0  0  0  0  0  0
   64.1230   81.8910   30.7620 H   0  0  0  0  0  0  0  0  0  0  0  0
   58.7172   80.9279   32.6769 H   0  0  0  0  0  0  0  0  0  0  0  0
   57.8550   79.0022   31.3556 H   0  0  0  0  0  0  0  0  0  0  0  0
   54.6039   75.7336   29.4021 H   0  0  0  0  0  0  0  0  0  0  0  0
   53.3086   81.8318   25.2357 H   0  0  0  0  0  0  0  0  0  0  0  0
   53.9931   81.5594   28.1946 H   0  0  0  0  0  0  0  0  0  0  0  0
   53.0237   82.8679   27.4365 H   0  0  0  0  0  0  0  0  0  0  0  0
   52.4095   81.1799   27.4365 H   0  0  0  0  0  0  0  0  0  0  0  0
   52.1686   80.7383   24.6721 H   0  0  0  0  0  0  0  0  0  0  0  0
   53.1865   82.2961   23.2787 H   0  0  0  0  0  0  0  0  0  0  0  0
   53.7815   81.0461   22.1342 H   0  0  0  0  0  0  0  0  0  0  0  0
   52.0464   81.5107   22.1342 H   0  0  0  0  0  0  0  0  0  0  0  0
   50.9310   79.7110   23.0170 H   0  0  0  0  0  0  0  0  0  0  0  0
  1  2  1  0
  2  3  1  0
  3  4  1  0
  4  5  1  0
  5  6  2  0
  6  7  1  0
  7  8  1  0
  8  9  1  0
  9 10  1  0
 10 11  2  0
 11 12  1  0
 12 13  1  0
 13 14  2  0
 13 15  2  0
 13 16  1  0
 16 17  1  0
 16 18  1  0
 18 19  1  0
 18 20  1  0
 12 21  2  0
 21 22  1  0
  7 23  2  0
 23 24  1  0
 24 25  2  0
 25 26  1  0
 26 27  1  0
 26 28  1  0
 26 29  1  0
  3 30  1  0
 30 31  1  0
 30 32  1  0
 32 33  1  0
  2 34  1  0
 34 35  1  0
 34 36  1  0
 25  5  1  0
 22  9  2  0
  1 37  1  0
  1 38  1  0
  1 39  1  0
  2 40  1  6
  3 41  1  6
  8 42  1  0
 10 43  1  0
 11 44  1  0
 16 45  1  1
 17 46  1  0
 17 47  1  0
 17 48  1  0
 18 49  1  6
 19 50  1  0
 19 51  1  0
 19 52  1  0
 20 53  1  0
 21 54  1  0
 22 55  1  0
 24 56  1  0
 30 57  1  6
 31 58  1  0
 31 59  1  0
 31 60  1  0
 34 61  1  1
 35 62  1  0
 35 63  1  0
 35 64  1  0
 36 65  1  0
M  END
>  <meeko>  (1) 
{"is_sidechain": false}

>  <smiles>  (1) 
C[C@H]([C@H](Oc1nc(Nc2ccc(S(=O)(=O)[C@@H](C)[C@@H](C)O)cc2)ncc1C(F)(F)F)[C@@H](C)OF)[C@@H](C)O

>  <vina_score>  (1) 
-8.413

>  <job_id>  (1) 
da690c42e4e493dc

$$$$
