
     RDKit          3D

 46 48  0  0  0  0  0  0  0  0999 V2000
   64.6710   86.2020   30.9550 C   0  0  0  0  0  0  0  0  0  0  0  0
   63.6200   85.2650   31.3390 N   0  0  0  0  0  0  0  0  0  0  0  0
   62.3380   85.9220   31.6240 C   0  0  0  0  0  0  0  0  0  0  0  0
   61.3180   85.1330   32.4510 C   0  0  0  0  0  0  0  0  0  0  0  0
   61.8040   83.7470   32.8710 C   0  0  0  0  0  0  0  0  0  0  0  0
   61.9410   82.7780   31.7830 N   0  0  0  0  0  0  0  0  0  0  0  0
   60.8500   81.9980   31.4100 C   0  0  0  0  0  0  0  0  0  0  0  0
   60.1280   81.2310   32.3390 C   0  0  0  0  0  0  0  0  0  0  0  0
   59.0300   80.4370   31.9710 C   0  0  0  0  0  0  0  0  0  0  0  0
   58.6120   80.3810   30.6460 C   0  0  0  0  0  0  0  0  0  0  0  0
   57.5280   79.6060   30.1880 N   0  0  0  0  0  0  0  0  0  0  0  0
   57.3490   79.0780   28.9210 C   0  0  0  0  0  0  0  0  0  0  0  0
   58.1370   79.1270   27.9840 O   0  0  0  0  0  0  0  0  0  0  0  0
   56.0680   78.3420   28.7280 C   0  0  0  0  0  0  0  0  0  0  0  0
   55.1260   78.7410   27.7710 C   0  0  0  0  0  0  0  0  0  0  0  0
   53.9380   78.0220   27.6210 C   0  0  0  0  0  0  0  0  0  0  0  0
   53.6920   76.9030   28.4180 C   0  0  0  0  0  0  0  0  0  0  0  0
   54.6370   76.4920   29.3580 C   0  0  0  0  0  0  0  0  0  0  0  0
   55.8250   77.2060   29.5110 C   0  0  0  0  0  0  0  0  0  0  0  0
   59.3160   81.1250   29.7000 C   0  0  0  0  0  0  0  0  0  0  0  0
   60.4110   81.9170   30.0800 C   0  0  0  0  0  0  0  0  0  0  0  0
   63.1870   82.7460   31.0080 C   0  0  0  0  0  0  0  0  0  0  0  0
   63.5050   84.1320   30.4060 C   0  0  0  0  0  0  0  0  0  0  0  0
   65.1387   86.6190   31.8591 H   0  0  0  0  0  0  0  0  0  0  0  0
   65.4309   85.6762   30.3583 H   0  0  0  0  0  0  0  0  0  0  0  0
   64.2355   87.0170   30.3583 H   0  0  0  0  0  0  0  0  0  0  0  0
   62.5564   86.8529   32.1678 H   0  0  0  0  0  0  0  0  0  0  0  0
   61.8632   86.0579   30.6411 H   0  0  0  0  0  0  0  0  0  0  0  0
   61.0875   85.7095   33.3590 H   0  0  0  0  0  0  0  0  0  0  0  0
   60.4353   84.9828   31.8121 H   0  0  0  0  0  0  0  0  0  0  0  0
   62.7876   83.8621   33.3499 H   0  0  0  0  0  0  0  0  0  0  0  0
   61.0321   83.3439   33.5431 H   0  0  0  0  0  0  0  0  0  0  0  0
   60.4344   81.2532   33.3952 H   0  0  0  0  0  0  0  0  0  0  0  0
   58.4964   79.8548   32.7367 H   0  0  0  0  0  0  0  0  0  0  0  0
   56.8410   79.3580   30.8880 H   0  0  0  0  0  0  0  0  0  0  0  0
   55.3217   79.6194   27.1385 H   0  0  0  0  0  0  0  0  0  0  0  0
   53.1953   78.3381   26.8737 H   0  0  0  0  0  0  0  0  0  0  0  0
   52.7513   76.3442   28.3047 H   0  0  0  0  0  0  0  0  0  0  0  0
   54.4451   75.6044   29.9788 H   0  0  0  0  0  0  0  0  0  0  0  0
   56.5726   76.8767   30.2477 H   0  0  0  0  0  0  0  0  0  0  0  0
   59.0099   81.0910   28.6440 H   0  0  0  0  0  0  0  0  0  0  0  0
   60.9428   82.4936   29.3088 H   0  0  0  0  0  0  0  0  0  0  0  0
   64.0129   82.4435   31.6686 H   0  0  0  0  0  0  0  0  0  0  0  0
   63.0667   82.0273   30.1840 H   0  0  0  0  0  0  0  0  0  0  0  0
   64.4618   84.0474   29.8700 H   0  0  0  0  0  0  0  0  0  0  0  0
   62.6350   84.3722   29.7772 H   0  0  0  0  0  0  0  0  0  0  0  0
  1  2  1  0
  2  3  1  0
  3  4  1  0
  4  5  1  0
  5  6  1  0
  6  7  1  0
  7  8  1  0
  8  9  2  0
  9 10  1  0
 10 11  1  0
 11 12  1  0
 12 13  2  0
 12 14  1  0
 14 15  2  0
 15 16  1  0
 16 17  2  0
 17 18  1  0
 18 19  2  0
 10 20  2  0
 20 21  1  0
  6 22  1  0
 22 23  1  0
 23  2  1  0
 21  7  2  0
 19 14  1  0
  1 24  1  0
  1 25  1  0
  1 26  1  0
  3 27  1  0
  3 28  1  0
  4 29  1  0
  4 30  1  0
  5 31  1  0
  5 32  1  0
  8 33  1  0
  9 34  1  0
 11 35  1  0
 15 36  1  0
 16 37  1  0
 17 38  1  0
 18 39  1  0
 19 40  1  0
 20 41  1  0
 21 42  1  0
 22 43  1  0
 22 44  1  0
 23 45  1  0
 23 46  1  0
M  END
>  <meeko>  (1) 
{"is_sidechain": false}

>  <smiles>  (1) 
CN1CCCN(c2ccc(NC(=O)c3ccccc3)cc2)CC1

>  <vina_score>  (1) 
-5.803

>  <job_id>  (1) 
da6d0da634e1cf2e

$$$$
