
     RDKit          3D

 66 69  0  0  0  0  0  0  0  0999 V2000
   52.7870   81.1370   25.1540 C   0  0  0  0  0  0  0  0  0  0  0  0
   53.4990   81.6090   26.4250 C   0  0  0  0  0  0  0  0  0  0  0  0
   53.9500   80.4270   27.2940 C   0  0  0  0  0  0  0  0  0  0  0  0
   55.1780   79.7070   26.7250 C   0  0  0  0  0  0  0  0  0  0  0  0
   56.2960   80.6110   26.4270 N   0  0  0  0  0  0  0  0  0  0  0  0
   56.9600   81.0620   27.5930 N   0  0  0  0  0  0  0  0  0  0  0  0
   57.5710   80.1320   28.4290 C   0  0  0  0  0  0  0  0  0  0  0  0
   57.5610   78.9180   28.2340 O   0  0  0  0  0  0  0  0  0  0  0  0
   58.1900   80.7100   29.5520 N   0  0  0  0  0  0  0  0  0  0  0  0
   58.8130   82.0330   29.4740 C   0  0  0  0  0  0  0  0  0  0  0  0
   59.0080   82.6570   30.8500 C   0  0  0  0  0  0  0  0  0  0  0  0
   59.7300   81.7210   31.8250 C   0  0  0  0  0  0  0  0  0  0  0  0
   61.1380   81.6270   31.4530 N   0  0  0  0  0  0  0  0  0  0  0  0
   62.0410   82.3790   32.1820 C   0  0  0  0  0  0  0  0  0  0  0  0
   61.7600   82.5040   33.4810 N   0  0  0  0  0  0  0  0  0  0  0  0
   62.6200   83.2410   34.2120 C   0  0  0  0  0  0  0  0  0  0  0  0
   63.7440   83.8450   33.6990 C   0  0  0  0  0  0  0  0  0  0  0  0
   64.7270   84.8140   34.7270 Cl  0  0  0  0  0  0  0  0  0  0  0  0
   63.9720   83.6570   32.3380 C   0  0  0  0  0  0  0  0  0  0  0  0
   65.0970   84.2240   31.6980 N   0  0  0  0  0  0  0  0  0  0  0  0
   65.6930   83.3340   30.6820 C   0  0  0  0  0  0  0  0  0  0  0  0
   66.8100   83.9840   29.8590 C   0  0  0  0  0  0  0  0  0  0  0  0
   66.3590   85.1080   28.9070 C   0  0  0  0  0  0  0  0  0  0  0  0
   64.9130   85.1980   28.7610 N   0  0  0  0  0  0  0  0  0  0  0  0
   64.2470   85.8100   29.9280 C   0  0  0  0  0  0  0  0  0  0  0  0
   64.9000   85.6350   31.3220 C   0  0  0  0  0  0  0  0  0  0  0  0
   63.1050   82.9370   31.5870 N   0  0  0  0  0  0  0  0  0  0  0  0
   59.0380   80.3550   31.8550 C   0  0  0  0  0  0  0  0  0  0  0  0
   58.8400   79.7700   30.4620 C   0  0  0  0  0  0  0  0  0  0  0  0
   55.8980   81.7260   25.5630 C   0  0  0  0  0  0  0  0  0  0  0  0
   54.6980   82.5110   26.1020 C   0  0  0  0  0  0  0  0  0  0  0  0
   51.8991   80.5484   25.4282 H   0  0  0  0  0  0  0  0  0  0  0  0
   52.4790   82.0104   24.5604 H   0  0  0  0  0  0  0  0  0  0  0  0
   53.4715   80.5132   24.5604 H   0  0  0  0  0  0  0  0  0  0  0  0
   52.7658   82.1986   26.9949 H   0  0  0  0  0  0  0  0  0  0  0  0
   54.1965   80.8027   28.2980 H   0  0  0  0  0  0  0  0  0  0  0  0
   53.1236   79.7016   27.3218 H   0  0  0  0  0  0  0  0  0  0  0  0
   55.5177   78.9624   27.4600 H   0  0  0  0  0  0  0  0  0  0  0  0
   54.8724   79.2433   25.7755 H   0  0  0  0  0  0  0  0  0  0  0  0
   56.5550   81.8510   28.0790 H   0  0  0  0  0  0  0  0  0  0  0  0
   59.7944   81.9347   28.9869 H   0  0  0  0  0  0  0  0  0  0  0  0
   58.1445   82.6885   28.8966 H   0  0  0  0  0  0  0  0  0  0  0  0
   59.6020   83.5761   30.7390 H   0  0  0  0  0  0  0  0  0  0  0  0
   58.0110   82.8657   31.2653 H   0  0  0  0  0  0  0  0  0  0  0  0
   59.6810   82.1259   32.8466 H   0  0  0  0  0  0  0  0  0  0  0  0
   61.5380   80.6970   31.3780 H   0  0  0  0  0  0  0  0  0  0  0  0
   62.4099   83.3670   35.2844 H   0  0  0  0  0  0  0  0  0  0  0  0
   66.1089   82.4542   31.1947 H   0  0  0  0  0  0  0  0  0  0  0  0
   64.8895   83.0744   29.9770 H   0  0  0  0  0  0  0  0  0  0  0  0
   67.5457   84.4067   30.5591 H   0  0  0  0  0  0  0  0  0  0  0  0
   67.2173   83.1883   29.2180 H   0  0  0  0  0  0  0  0  0  0  0  0
   66.7300   86.0665   29.2990 H   0  0  0  0  0  0  0  0  0  0  0  0
   66.7715   84.8768   27.9138 H   0  0  0  0  0  0  0  0  0  0  0  0
   64.5120   84.2740   28.5990 H   0  0  0  0  0  0  0  0  0  0  0  0
   64.1781   86.8906   29.7340 H   0  0  0  0  0  0  0  0  0  0  0  0
   63.2904   85.2728   30.0071 H   0  0  0  0  0  0  0  0  0  0  0  0
   65.8799   86.1348   31.3142 H   0  0  0  0  0  0  0  0  0  0  0  0
   64.2161   86.0777   32.0611 H   0  0  0  0  0  0  0  0  0  0  0  0
   59.6541   79.6604   32.4449 H   0  0  0  0  0  0  0  0  0  0  0  0
   58.0432   80.4943   32.3033 H   0  0  0  0  0  0  0  0  0  0  0  0
   59.8231   79.5003   30.0488 H   0  0  0  0  0  0  0  0  0  0  0  0
   58.1882   78.8890   30.5570 H   0  0  0  0  0  0  0  0  0  0  0  0
   56.7506   82.4143   25.4660 H   0  0  0  0  0  0  0  0  0  0  0  0
   55.5992   81.2978   24.5948 H   0  0  0  0  0  0  0  0  0  0  0  0
   55.0030   83.0339   27.0205 H   0  0  0  0  0  0  0  0  0  0  0  0
   54.3827   83.2163   25.3190 H   0  0  0  0  0  0  0  0  0  0  0  0
  1  2  1  0
  2  3  1  0
  3  4  1  0
  4  5  1  0
  5  6  1  0
  6  7  1  0
  7  8  2  0
  7  9  1  0
  9 10  1  0
 10 11  1  0
 11 12  1  0
 12 13  1  0
 13 14  1  0
 14 15  2  0
 15 16  1  0
 16 17  2  0
 17 18  1  0
 17 19  1  0
 19 20  1  0
 20 21  1  0
 21 22  1  0
 22 23  1  0
 23 24  1  0
 24 25  1  0
 25 26  1  0
 19 27  2  0
 12 28  1  0
 28 29  1  0
  5 30  1  0
 30 31  1  0
 31  2  1  0
 29  9  1  0
 27 14  1  0
 26 20  1  0
  1 32  1  0
  1 33  1  0
  1 34  1  0
  2 35  1  0
  3 36  1  0
  3 37  1  0
  4 38  1  0
  4 39  1  0
  6 40  1  0
 10 41  1  0
 10 42  1  0
 11 43  1  0
 11 44  1  0
 12 45  1  0
 13 46  1  0
 16 47  1  0
 21 48  1  0
 21 49  1  0
 22 50  1  0
 22 51  1  0
 23 52  1  0
 23 53  1  0
 24 54  1  0
 25 55  1  0
 25 56  1  0
 26 57  1  0
 26 58  1  0
 28 59  1  0
 28 60  1  0
 29 61  1  0
 29 62  1  0
 30 63  1  0
 30 64  1  0
 31 65  1  0
 31 66  1  0
M  END
>  <meeko>  (1) 
{"is_sidechain": false}

>  <smiles>  (1) 
CC1CCN(NC(=O)N2CCC(Nc3ncc(Cl)c(N4CCCNCC4)n3)CC2)CC1

>  <vina_score>  (1) 
-5.936

>  <job_id>  (1) 
da9a2bf4a3c66c05

$$$$
