
     RDKit          3D

 44 46  0  0  0  0  0  0  0  0999 V2000
   61.9100   84.7340   32.8090 C   0  0  0  0  0  0  0  0  0  0  0  0
   60.5600   84.2580   32.5200 N   0  0  0  0  0  0  0  0  0  0  0  0
   60.3000   82.9400   33.1440 C   0  0  0  0  0  0  0  0  0  0  0  0
   60.9920   81.7320   32.4620 C   0  0  0  0  0  0  0  0  0  0  0  0
   60.7310   81.6920   31.0090 N   0  0  0  0  0  0  0  0  0  0  0  0
   59.6520   80.9700   30.4970 C   0  0  0  0  0  0  0  0  0  0  0  0
   59.2900   80.9630   29.1450 C   0  0  0  0  0  0  0  0  0  0  0  0
   58.1870   80.2320   28.6760 C   0  0  0  0  0  0  0  0  0  0  0  0
   57.3870   79.4830   29.5470 C   0  0  0  0  0  0  0  0  0  0  0  0
   56.2290   78.7190   29.0570 C   0  0  0  0  0  0  0  0  0  0  0  0
   55.9050   77.4650   29.6080 C   0  0  0  0  0  0  0  0  0  0  0  0
   54.8090   76.7340   29.1450 C   0  0  0  0  0  0  0  0  0  0  0  0
   54.0150   77.2600   28.1230 C   0  0  0  0  0  0  0  0  0  0  0  0
   52.6260   76.3290   27.5350 S   0  0  0  0  0  0  0  0  0  0  0  0
   53.1020   74.7530   27.8940 N   0  0  0  0  0  0  0  0  0  0  0  0
   51.4960   76.5960   28.3950 O   0  0  0  0  0  0  0  0  0  0  0  0
   52.5600   76.4590   26.0990 O   0  0  0  0  0  0  0  0  0  0  0  0
   54.3190   78.4930   27.5490 C   0  0  0  0  0  0  0  0  0  0  0  0
   55.4190   79.2170   28.0190 C   0  0  0  0  0  0  0  0  0  0  0  0
   57.7250   79.5000   30.9040 C   0  0  0  0  0  0  0  0  0  0  0  0
   58.8290   80.2320   31.3640 C   0  0  0  0  0  0  0  0  0  0  0  0
   61.0310   82.9840   30.3460 C   0  0  0  0  0  0  0  0  0  0  0  0
   60.3160   84.1570   31.0610 C   0  0  0  0  0  0  0  0  0  0  0  0
   62.0554   84.7853   33.8981 H   0  0  0  0  0  0  0  0  0  0  0  0
   62.6444   84.0406   32.3733 H   0  0  0  0  0  0  0  0  0  0  0  0
   62.0471   85.7347   32.3733 H   0  0  0  0  0  0  0  0  0  0  0  0
   60.6460   82.9845   34.1872 H   0  0  0  0  0  0  0  0  0  0  0  0
   59.2186   82.7656   33.0433 H   0  0  0  0  0  0  0  0  0  0  0  0
   62.0772   81.8056   32.6259 H   0  0  0  0  0  0  0  0  0  0  0  0
   60.5837   80.8120   32.9057 H   0  0  0  0  0  0  0  0  0  0  0  0
   59.8870   81.5471   28.4292 H   0  0  0  0  0  0  0  0  0  0  0  0
   57.9466   80.2481   27.6027 H   0  0  0  0  0  0  0  0  0  0  0  0
   56.5260   77.0536   30.4174 H   0  0  0  0  0  0  0  0  0  0  0  0
   54.5728   75.7523   29.5813 H   0  0  0  0  0  0  0  0  0  0  0  0
   54.1160   74.6360   27.9200 H   0  0  0  0  0  0  0  0  0  0  0  0
   52.6630   74.4680   28.7700 H   0  0  0  0  0  0  0  0  0  0  0  0
   53.6990   78.8932   26.7333 H   0  0  0  0  0  0  0  0  0  0  0  0
   55.6556   80.1928   27.5698 H   0  0  0  0  0  0  0  0  0  0  0  0
   57.1156   78.9306   31.6212 H   0  0  0  0  0  0  0  0  0  0  0  0
   59.0583   80.2283   32.4398 H   0  0  0  0  0  0  0  0  0  0  0  0
   62.1171   83.1567   30.3706 H   0  0  0  0  0  0  0  0  0  0  0  0
   60.6705   82.9359   29.3079 H   0  0  0  0  0  0  0  0  0  0  0  0
   60.6537   85.0945   30.5951 H   0  0  0  0  0  0  0  0  0  0  0  0
   59.2382   83.9688   30.9470 H   0  0  0  0  0  0  0  0  0  0  0  0
  1  2  1  0
  2  3  1  0
  3  4  1  0
  4  5  1  0
  5  6  1  0
  6  7  1  0
  7  8  2  0
  8  9  1  0
  9 10  1  0
 10 11  1  0
 11 12  2  0
 12 13  1  0
 13 14  1  0
 14 15  1  0
 14 16  2  0
 14 17  2  0
 13 18  2  0
 18 19  1  0
  9 20  2  0
 20 21  1  0
  5 22  1  0
 22 23  1  0
 23  2  1  0
 21  6  2  0
 19 10  2  0
  1 24  1  0
  1 25  1  0
  1 26  1  0
  3 27  1  0
  3 28  1  0
  4 29  1  0
  4 30  1  0
  7 31  1  0
  8 32  1  0
 11 33  1  0
 12 34  1  0
 15 35  1  0
 15 36  1  0
 18 37  1  0
 19 38  1  0
 20 39  1  0
 21 40  1  0
 22 41  1  0
 22 42  1  0
 23 43  1  0
 23 44  1  0
M  END
>  <meeko>  (1) 
{"is_sidechain": false}

>  <smiles>  (1) 
CN1CCN(c2ccc(-c3ccc(S(N)(=O)=O)cc3)cc2)CC1

>  <vina_score>  (1) 
-7.673

>  <job_id>  (1) 
db0b60586460d9ad

$$$$
