
     RDKit          3D

 46 48  0  0  0  0  0  0  0  0999 V2000
   52.5600   75.4880   27.4000 C   0  0  0  0  0  0  0  0  0  0  0  0
   52.5990   76.7810   27.9890 O   0  0  0  0  0  0  0  0  0  0  0  0
   53.8330   77.3240   28.2390 C   0  0  0  0  0  0  0  0  0  0  0  0
   54.7640   76.8070   29.1450 C   0  0  0  0  0  0  0  0  0  0  0  0
   55.9980   77.4370   29.3270 C   0  0  0  0  0  0  0  0  0  0  0  0
   56.3130   78.5970   28.6120 C   0  0  0  0  0  0  0  0  0  0  0  0
   57.6440   79.2320   28.8410 C   0  0  0  0  0  0  0  0  0  0  0  0
   58.5320   79.0390   28.0200 O   0  0  0  0  0  0  0  0  0  0  0  0
   57.7480   79.9610   30.0010 N   0  0  0  0  0  0  0  0  0  0  0  0
   58.8450   80.6850   30.4690 C   0  0  0  0  0  0  0  0  0  0  0  0
   59.6800   81.4460   29.6680 C   0  0  0  0  0  0  0  0  0  0  0  0
   60.7410   82.1290   30.2620 C   0  0  0  0  0  0  0  0  0  0  0  0
   60.9430   82.0390   31.6410 C   0  0  0  0  0  0  0  0  0  0  0  0
   60.0580   81.2470   32.3690 C   0  0  0  0  0  0  0  0  0  0  0  0
   59.0190   80.5830   31.8040 N   0  0  0  0  0  0  0  0  0  0  0  0
   60.2010   81.1340   33.8620 C   0  0  0  0  0  0  0  0  0  0  0  0
   61.6480   81.3420   34.2830 C   0  0  0  0  0  0  0  0  0  0  0  0
   62.1820   82.5890   33.7390 N   0  0  0  0  0  0  0  0  0  0  0  0
   63.0630   83.3250   34.5240 C   0  0  0  0  0  0  0  0  0  0  0  0
   62.7560   83.4150   35.9990 C   0  0  0  0  0  0  0  0  0  0  0  0
   64.0640   83.8750   34.0680 O   0  0  0  0  0  0  0  0  0  0  0  0
   62.0900   82.7620   32.2910 C   0  0  0  0  0  0  0  0  0  0  0  0
   55.3930   79.1080   27.6900 C   0  0  0  0  0  0  0  0  0  0  0  0
   54.1490   78.4820   27.5030 C   0  0  0  0  0  0  0  0  0  0  0  0
   53.1730   79.0450   26.5040 C   0  0  0  0  0  0  0  0  0  0  0  0
   52.5370   74.7249   28.1919 H   0  0  0  0  0  0  0  0  0  0  0  0
   51.6587   75.3963   26.7761 H   0  0  0  0  0  0  0  0  0  0  0  0
   53.4542   75.3422   26.7761 H   0  0  0  0  0  0  0  0  0  0  0  0
   54.5237   75.8992   29.7178 H   0  0  0  0  0  0  0  0  0  0  0  0
   56.7262   77.0179   30.0370 H   0  0  0  0  0  0  0  0  0  0  0  0
   56.9920   79.9600   30.6700 H   0  0  0  0  0  0  0  0  0  0  0  0
   59.5095   81.5106   28.5832 H   0  0  0  0  0  0  0  0  0  0  0  0
   61.4181   82.7380   29.6450 H   0  0  0  0  0  0  0  0  0  0  0  0
   59.5720   81.8973   34.3434 H   0  0  0  0  0  0  0  0  0  0  0  0
   59.8849   80.1269   34.1714 H   0  0  0  0  0  0  0  0  0  0  0  0
   61.7007   81.3778   35.3812 H   0  0  0  0  0  0  0  0  0  0  0  0
   62.2480   80.5065   33.8933 H   0  0  0  0  0  0  0  0  0  0  0  0
   63.6540   83.1517   36.5772 H   0  0  0  0  0  0  0  0  0  0  0  0
   62.4478   84.4413   36.2474 H   0  0  0  0  0  0  0  0  0  0  0  0
   61.9424   82.7176   36.2474 H   0  0  0  0  0  0  0  0  0  0  0  0
   61.9804   83.8362   32.0810 H   0  0  0  0  0  0  0  0  0  0  0  0
   63.0085   82.3286   31.8685 H   0  0  0  0  0  0  0  0  0  0  0  0
   55.6454   80.0062   27.1074 H   0  0  0  0  0  0  0  0  0  0  0  0
   52.3394   79.5259   27.0367 H   0  0  0  0  0  0  0  0  0  0  0  0
   53.6821   79.7882   25.8727 H   0  0  0  0  0  0  0  0  0  0  0  0
   52.7846   78.2322   25.8727 H   0  0  0  0  0  0  0  0  0  0  0  0
  1  2  1  0
  2  3  1  0
  3  4  1  0
  4  5  2  0
  5  6  1  0
  6  7  1  0
  7  8  2  0
  7  9  1  0
  9 10  1  0
 10 11  1  0
 11 12  2  0
 12 13  1  0
 13 14  2  0
 14 15  1  0
 14 16  1  0
 16 17  1  0
 17 18  1  0
 18 19  1  0
 19 20  1  0
 19 21  2  0
 18 22  1  0
  6 23  2  0
 23 24  1  0
 24 25  1  0
 24  3  2  0
 15 10  2  0
 22 13  1  0
  1 26  1  0
  1 27  1  0
  1 28  1  0
  4 29  1  0
  5 30  1  0
  9 31  1  0
 11 32  1  0
 12 33  1  0
 16 34  1  0
 16 35  1  0
 17 36  1  0
 17 37  1  0
 20 38  1  0
 20 39  1  0
 20 40  1  0
 22 41  1  0
 22 42  1  0
 23 43  1  0
 25 44  1  0
 25 45  1  0
 25 46  1  0
M  END
>  <meeko>  (1) 
{"is_sidechain": false}

>  <smiles>  (1) 
COc1ccc(C(=O)Nc2ccc3c(n2)CCN(C(C)=O)C3)cc1C

>  <vina_score>  (1) 
-8.216

>  <job_id>  (1) 
db3eba4794864ef0

$$$$
