
     RDKit          3D

 37 39  0  0  0  0  0  0  0  0999 V2000
   51.8140   80.3430   22.8850 C   0  0  0  0  0  0  0  0  0  0  0  0
   52.5140   81.6260   23.2630 C   0  0  0  0  0  0  0  0  0  0  0  0
   52.5600   82.5660   22.4780 O   0  0  0  0  0  0  0  0  0  0  0  0
   53.0600   81.5640   24.5330 N   0  0  0  0  0  0  0  0  0  0  0  0
   53.8170   82.5490   25.2110 C   0  0  0  0  0  0  0  0  0  0  0  0
   53.2970   83.8200   25.4900 C   0  0  0  0  0  0  0  0  0  0  0  0
   54.0610   84.7910   26.1450 C   0  0  0  0  0  0  0  0  0  0  0  0
   55.3630   84.5080   26.5340 C   0  0  0  0  0  0  0  0  0  0  0  0
   55.8990   83.2500   26.2730 C   0  0  0  0  0  0  0  0  0  0  0  0
   55.1410   82.2560   25.6180 C   0  0  0  0  0  0  0  0  0  0  0  0
   55.8000   80.9140   25.3950 C   0  0  0  0  0  0  0  0  0  0  0  0
   55.5870   79.9920   26.4920 N   0  0  0  0  0  0  0  0  0  0  0  0
   56.5610   79.7960   27.5530 C   0  0  0  0  0  0  0  0  0  0  0  0
   55.9220   78.7300   28.3800 C   0  0  0  0  0  0  0  0  0  0  0  0
   56.3580   78.1380   29.5520 C   0  0  0  0  0  0  0  0  0  0  0  0
   55.5600   77.1380   30.1220 C   0  0  0  0  0  0  0  0  0  0  0  0
   54.3510   76.7430   29.5190 C   0  0  0  0  0  0  0  0  0  0  0  0
   53.9170   77.3420   28.3350 C   0  0  0  0  0  0  0  0  0  0  0  0
   54.7210   78.3280   27.7950 C   0  0  0  0  0  0  0  0  0  0  0  0
   54.5230   79.1180   26.5760 C   0  0  0  0  0  0  0  0  0  0  0  0
   53.6090   78.9920   25.7820 O   0  0  0  0  0  0  0  0  0  0  0  0
   51.5196   79.8034   23.7972 H   0  0  0  0  0  0  0  0  0  0  0  0
   50.9177   80.5755   22.2912 H   0  0  0  0  0  0  0  0  0  0  0  0
   52.4946   79.7152   22.2912 H   0  0  0  0  0  0  0  0  0  0  0  0
   52.9370   80.6680   25.0020 H   0  0  0  0  0  0  0  0  0  0  0  0
   52.2667   84.0588   25.1876 H   0  0  0  0  0  0  0  0  0  0  0  0
   53.6292   85.7812   26.3524 H   0  0  0  0  0  0  0  0  0  0  0  0
   55.9670   85.2723   27.0449 H   0  0  0  0  0  0  0  0  0  0  0  0
   56.9307   83.0270   26.5825 H   0  0  0  0  0  0  0  0  0  0  0  0
   55.3880   80.4688   24.4774 H   0  0  0  0  0  0  0  0  0  0  0  0
   56.8833   81.0875   25.3152 H   0  0  0  0  0  0  0  0  0  0  0  0
   57.5277   79.4608   27.1491 H   0  0  0  0  0  0  0  0  0  0  0  0
   56.7885   80.7130   28.1164 H   0  0  0  0  0  0  0  0  0  0  0  0
   57.3041   78.4439   30.0226 H   0  0  0  0  0  0  0  0  0  0  0  0
   55.8831   76.6538   31.0554 H   0  0  0  0  0  0  0  0  0  0  0  0
   53.7421   75.9545   29.9853 H   0  0  0  0  0  0  0  0  0  0  0  0
   52.9752   77.0420   27.8524 H   0  0  0  0  0  0  0  0  0  0  0  0
  1  2  1  0
  2  3  2  0
  2  4  1  0
  4  5  1  0
  5  6  2  0
  6  7  1  0
  7  8  2  0
  8  9  1  0
  9 10  2  0
 10 11  1  0
 11 12  1  0
 12 13  1  0
 13 14  1  0
 14 15  2  0
 15 16  1  0
 16 17  2  0
 17 18  1  0
 18 19  2  0
 19 20  1  0
 20 21  2  0
 10  5  1  0
 20 12  1  0
 19 14  1  0
  1 22  1  0
  1 23  1  0
  1 24  1  0
  4 25  1  0
  6 26  1  0
  7 27  1  0
  8 28  1  0
  9 29  1  0
 11 30  1  0
 11 31  1  0
 13 32  1  0
 13 33  1  0
 15 34  1  0
 16 35  1  0
 17 36  1  0
 18 37  1  0
M  END
>  <meeko>  (1) 
{"is_sidechain": false}

>  <smiles>  (1) 
CC(=O)Nc1ccccc1CN1Cc2ccccc2C1=O

>  <vina_score>  (1) 
-7.529

>  <job_id>  (1) 
dbe22f3452fddbf5

$$$$
