
     RDKit          3D

 46 47  0  0  0  0  0  0  0  0999 V2000
   52.2470   76.5500   27.6680 C   0  0  0  0  0  0  0  0  0  0  0  0
   53.5180   77.2790   27.9240 C   0  0  0  0  0  0  0  0  0  0  0  0
   54.3580   76.9860   28.8940 N   0  0  0  0  0  0  0  0  0  0  0  0
   55.3910   77.8640   28.7700 C   0  0  0  0  0  0  0  0  0  0  0  0
   55.1890   78.7330   27.7170 C   0  0  0  0  0  0  0  0  0  0  0  0
   56.0670   79.8330   27.2580 C   0  0  0  0  0  0  0  0  0  0  0  0
   57.2260   79.8560   28.1160 N   0  0  0  0  0  0  0  0  0  0  0  0
   57.8690   81.0420   28.3960 C   0  0  0  0  0  0  0  0  0  0  0  0
   57.4360   82.1300   28.0290 O   0  0  0  0  0  0  0  0  0  0  0  0
   59.1540   80.8670   29.2020 C   0  0  0  0  0  0  0  0  0  0  0  0
   58.9340   79.9260   30.4000 C   0  0  0  0  0  0  0  0  0  0  0  0
   58.7970   80.7100   31.7030 C   0  0  0  0  0  0  0  0  0  0  0  0
   60.0210   81.4610   32.0120 N   0  0  0  0  0  0  0  0  0  0  0  0
   59.7670   82.4460   33.0600 C   0  0  0  0  0  0  0  0  0  0  0  0
   60.6620   82.0650   30.8370 C   0  0  0  0  0  0  0  0  0  0  0  0
   59.7250   82.2240   29.6430 C   0  0  0  0  0  0  0  0  0  0  0  0
   53.9800   78.3470   27.1700 N   0  0  0  0  0  0  0  0  0  0  0  0
   53.2910   78.8960   26.0010 C   0  0  0  0  0  0  0  0  0  0  0  0
   52.9100   80.3700   26.1330 C   0  0  0  0  0  0  0  0  0  0  0  0
   54.0440   78.6060   24.7030 C   0  0  0  0  0  0  0  0  0  0  0  0
   51.7789   76.2815   28.6265 H   0  0  0  0  0  0  0  0  0  0  0  0
   51.5642   77.1938   27.0941 H   0  0  0  0  0  0  0  0  0  0  0  0
   52.4580   75.6356   27.0941 H   0  0  0  0  0  0  0  0  0  0  0  0
   56.2742   77.8789   29.4256 H   0  0  0  0  0  0  0  0  0  0  0  0
   56.3751   79.6568   26.2168 H   0  0  0  0  0  0  0  0  0  0  0  0
   55.5351   80.7948   27.3030 H   0  0  0  0  0  0  0  0  0  0  0  0
   57.7300   78.9890   28.2470 H   0  0  0  0  0  0  0  0  0  0  0  0
   59.9015   80.3960   28.5466 H   0  0  0  0  0  0  0  0  0  0  0  0
   58.0159   79.3433   30.2341 H   0  0  0  0  0  0  0  0  0  0  0  0
   59.8065   79.2615   30.4846 H   0  0  0  0  0  0  0  0  0  0  0  0
   57.9589   81.4162   31.6086 H   0  0  0  0  0  0  0  0  0  0  0  0
   58.6168   79.9942   32.5185 H   0  0  0  0  0  0  0  0  0  0  0  0
   59.8891   81.9727   34.0454 H   0  0  0  0  0  0  0  0  0  0  0  0
   60.4800   83.2779   32.9619 H   0  0  0  0  0  0  0  0  0  0  0  0
   58.7406   82.8293   32.9619 H   0  0  0  0  0  0  0  0  0  0  0  0
   61.0377   83.0597   31.1189 H   0  0  0  0  0  0  0  0  0  0  0  0
   61.4688   81.3855   30.5252 H   0  0  0  0  0  0  0  0  0  0  0  0
   58.8948   82.8887   29.9241 H   0  0  0  0  0  0  0  0  0  0  0  0
   60.2963   82.6510   28.8055 H   0  0  0  0  0  0  0  0  0  0  0  0
   52.3321   78.3592   25.9530 H   0  0  0  0  0  0  0  0  0  0  0  0
   52.8410   80.6369   27.1979 H   0  0  0  0  0  0  0  0  0  0  0  0
   53.6769   80.9918   25.6481 H   0  0  0  0  0  0  0  0  0  0  0  0
   51.9378   80.5423   25.6481 H   0  0  0  0  0  0  0  0  0  0  0  0
   55.0466   78.2199   24.9391 H   0  0  0  0  0  0  0  0  0  0  0  0
   53.4909   77.8566   24.1178 H   0  0  0  0  0  0  0  0  0  0  0  0
   54.1365   79.5328   24.1178 H   0  0  0  0  0  0  0  0  0  0  0  0
  1  2  1  0
  2  3  2  0
  3  4  1  0
  4  5  2  0
  5  6  1  0
  6  7  1  0
  7  8  1  0
  8  9  2  0
  8 10  1  0
 10 11  1  0
 11 12  1  0
 12 13  1  0
 13 14  1  0
 13 15  1  0
 15 16  1  0
  5 17  1  0
 17 18  1  0
 18 19  1  0
 18 20  1  0
 17  2  1  0
 16 10  1  0
  1 21  1  0
  1 22  1  0
  1 23  1  0
  4 24  1  0
  6 25  1  0
  6 26  1  0
  7 27  1  0
 10 28  1  0
 11 29  1  0
 11 30  1  0
 12 31  1  0
 12 32  1  0
 14 33  1  0
 14 34  1  0
 14 35  1  0
 15 36  1  0
 15 37  1  0
 16 38  1  0
 16 39  1  0
 18 40  1  0
 19 41  1  0
 19 42  1  0
 19 43  1  0
 20 44  1  0
 20 45  1  0
 20 46  1  0
M  END
>  <meeko>  (1) 
{"is_sidechain": false}

>  <smiles>  (1) 
Cc1ncc(CNC(=O)C2CCN(C)CC2)n1C(C)C

>  <vina_score>  (1) 
-6.713

>  <job_id>  (1) 
dc200db738fbf61a

$$$$
