
     RDKit          3D

 38 39  0  0  0  0  0  0  0  0999 V2000
   52.8790   76.8210   27.7500 C   0  0  0  0  0  0  0  0  0  0  0  0
   53.6840   78.0390   27.7510 N   0  0  0  0  0  0  0  0  0  0  0  0
   54.3780   78.3520   29.0080 C   0  0  0  0  0  0  0  0  0  0  0  0
   55.7640   77.7050   29.1230 C   0  0  0  0  0  0  0  0  0  0  0  0
   55.9480   76.5260   28.8300 O   0  0  0  0  0  0  0  0  0  0  0  0
   56.6900   78.4740   29.7910 N   0  0  0  0  0  0  0  0  0  0  0  0
   57.7870   78.9290   29.0920 C   0  0  0  0  0  0  0  0  0  0  0  0
   58.1820   78.4760   28.0240 O   0  0  0  0  0  0  0  0  0  0  0  0
   58.5000   80.0930   29.6930 C   0  0  0  0  0  0  0  0  0  0  0  0
   59.1760   81.0420   28.9110 C   0  0  0  0  0  0  0  0  0  0  0  0
   59.8480   82.1070   29.5190 C   0  0  0  0  0  0  0  0  0  0  0  0
   59.8410   82.2290   30.9070 C   0  0  0  0  0  0  0  0  0  0  0  0
   59.1580   81.2930   31.6770 C   0  0  0  0  0  0  0  0  0  0  0  0
   59.1540   81.4150   33.0100 F   0  0  0  0  0  0  0  0  0  0  0  0
   58.4850   80.2310   31.0860 C   0  0  0  0  0  0  0  0  0  0  0  0
   54.0340   78.7420   26.6040 C   0  0  0  0  0  0  0  0  0  0  0  0
   54.0450   78.1960   25.4990 O   0  0  0  0  0  0  0  0  0  0  0  0
   54.3520   80.1840   26.6930 C   0  0  0  0  0  0  0  0  0  0  0  0
   55.6640   80.6400   26.5210 C   0  0  0  0  0  0  0  0  0  0  0  0
   55.9360   82.0070   26.5900 C   0  0  0  0  0  0  0  0  0  0  0  0
   54.9000   82.9140   26.8160 C   0  0  0  0  0  0  0  0  0  0  0  0
   53.5890   82.4610   26.9640 C   0  0  0  0  0  0  0  0  0  0  0  0
   53.3100   81.0960   26.8940 C   0  0  0  0  0  0  0  0  0  0  0  0
   52.6764   76.5145   28.7868 H   0  0  0  0  0  0  0  0  0  0  0  0
   51.9277   77.0106   27.2312 H   0  0  0  0  0  0  0  0  0  0  0  0
   53.4263   76.0202   27.2312 H   0  0  0  0  0  0  0  0  0  0  0  0
   54.4971   79.4434   29.0768 H   0  0  0  0  0  0  0  0  0  0  0  0
   53.7639   77.9453   29.8249 H   0  0  0  0  0  0  0  0  0  0  0  0
   56.2620   79.1970   30.3690 H   0  0  0  0  0  0  0  0  0  0  0  0
   59.1773   80.9478   27.8150 H   0  0  0  0  0  0  0  0  0  0  0  0
   60.3807   82.8465   28.9031 H   0  0  0  0  0  0  0  0  0  0  0  0
   60.3728   83.0611   31.3915 H   0  0  0  0  0  0  0  0  0  0  0  0
   57.9439   79.5033   31.7086 H   0  0  0  0  0  0  0  0  0  0  0  0
   56.4773   79.9239   26.3322 H   0  0  0  0  0  0  0  0  0  0  0  0
   56.9671   82.3695   26.4662 H   0  0  0  0  0  0  0  0  0  0  0  0
   55.1180   83.9904   26.8777 H   0  0  0  0  0  0  0  0  0  0  0  0
   52.7749   83.1804   27.1360 H   0  0  0  0  0  0  0  0  0  0  0  0
   52.2749   80.7380   26.9964 H   0  0  0  0  0  0  0  0  0  0  0  0
  1  2  1  0
  2  3  1  0
  3  4  1  0
  4  5  2  0
  4  6  1  0
  6  7  1  0
  7  8  2  0
  7  9  1  0
  9 10  2  0
 10 11  1  0
 11 12  2  0
 12 13  1  0
 13 14  1  0
 13 15  2  0
  2 16  1  0
 16 17  2  0
 16 18  1  0
 18 19  2  0
 19 20  1  0
 20 21  2  0
 21 22  1  0
 22 23  2  0
 15  9  1  0
 23 18  1  0
  1 24  1  0
  1 25  1  0
  1 26  1  0
  3 27  1  0
  3 28  1  0
  6 29  1  0
 10 30  1  0
 11 31  1  0
 12 32  1  0
 15 33  1  0
 19 34  1  0
 20 35  1  0
 21 36  1  0
 22 37  1  0
 23 38  1  0
M  END
>  <meeko>  (1) 
{"is_sidechain": false}

>  <smiles>  (1) 
CN(CC(=O)NC(=O)c1cccc(F)c1)C(=O)c1ccccc1

>  <vina_score>  (1) 
-8.010

>  <job_id>  (1) 
dc26f5d23c50c10d

$$$$
