
     RDKit          3D

 60 63  0  0  0  0  0  0  0  0999 V2000
   52.3410   75.3600   26.8960 C   0  0  0  0  0  0  0  0  0  0  0  0
   52.3520   76.4400   27.9670 C   0  0  0  0  0  0  0  0  0  0  0  0
   53.7310   76.8350   28.3610 C   0  0  0  0  0  0  0  0  0  0  0  0
   54.6130   76.1560   29.2260 C   0  0  0  0  0  0  0  0  0  0  0  0
   55.7830   76.7770   29.3790 N   0  0  0  0  0  0  0  0  0  0  0  0
   55.6770   77.8840   28.5840 N   0  0  0  0  0  0  0  0  0  0  0  0
   56.6480   78.8930   28.3950 C   0  0  0  0  0  0  0  0  0  0  0  0
   57.8630   78.7330   29.0740 N   0  0  0  0  0  0  0  0  0  0  0  0
   58.9350   79.7080   29.1010 C   0  0  0  0  0  0  0  0  0  0  0  0
   58.6920   80.7040   30.2060 C   0  0  0  0  0  0  0  0  0  0  0  0
   58.3940   80.2830   31.5070 C   0  0  0  0  0  0  0  0  0  0  0  0
   58.1840   81.2150   32.5200 C   0  0  0  0  0  0  0  0  0  0  0  0
   58.2790   82.5730   32.2280 C   0  0  0  0  0  0  0  0  0  0  0  0
   58.5780   83.0160   30.9520 N   0  0  0  0  0  0  0  0  0  0  0  0
   58.6710   84.2560   30.7010 O   0  0  0  0  0  0  0  0  0  0  0  0
   58.7800   82.0770   29.9540 C   0  0  0  0  0  0  0  0  0  0  0  0
   56.3320   79.9170   27.5840 C   0  0  0  0  0  0  0  0  0  0  0  0
   54.9730   79.9410   26.9200 C   0  0  0  0  0  0  0  0  0  0  0  0
   54.6000   80.9810   26.0640 N   0  0  0  0  0  0  0  0  0  0  0  0
   55.4100   82.1570   25.7710 C   0  0  0  0  0  0  0  0  0  0  0  0
   54.8550   83.3500   26.5480 C   0  0  0  0  0  0  0  0  0  0  0  0
   53.3220   83.3950   26.5190 C   0  0  0  0  0  0  0  0  0  0  0  0
   52.7560   82.5210   25.4000 C   0  0  0  0  0  0  0  0  0  0  0  0
   53.2060   81.0510   25.5510 C   0  0  0  0  0  0  0  0  0  0  0  0
   53.1010   80.2470   24.2390 C   0  0  0  0  0  0  0  0  0  0  0  0
   52.7080   81.0980   23.0320 C   0  0  0  0  0  0  0  0  0  0  0  0
   51.2570   80.9670   22.6280 C   0  0  0  0  0  0  0  0  0  0  0  0
   51.0600   80.8490   21.2830 N   0  0  0  0  0  0  0  0  0  0  0  0
   50.3080   80.9820   23.4020 O   0  0  0  0  0  0  0  0  0  0  0  0
   54.0930   78.9830   27.1390 N   0  0  0  0  0  0  0  0  0  0  0  0
   54.4360   77.9540   27.9620 C   0  0  0  0  0  0  0  0  0  0  0  0
   52.3309   74.3695   27.3742 H   0  0  0  0  0  0  0  0  0  0  0  0
   51.4440   75.4739   26.2696 H   0  0  0  0  0  0  0  0  0  0  0  0
   53.2402   75.4556   26.2696 H   0  0  0  0  0  0  0  0  0  0  0  0
   51.8278   77.3263   27.5801 H   0  0  0  0  0  0  0  0  0  0  0  0
   51.8525   76.0329   28.8585 H   0  0  0  0  0  0  0  0  0  0  0  0
   54.3612   75.2085   29.7249 H   0  0  0  0  0  0  0  0  0  0  0  0
   57.6900   78.2860   29.9830 H   0  0  0  0  0  0  0  0  0  0  0  0
   59.8916   79.1941   29.2765 H   0  0  0  0  0  0  0  0  0  0  0  0
   58.9694   80.2365   28.1369 H   0  0  0  0  0  0  0  0  0  0  0  0
   58.3252   79.2082   31.7309 H   0  0  0  0  0  0  0  0  0  0  0  0
   57.9454   80.8817   33.5408 H   0  0  0  0  0  0  0  0  0  0  0  0
   58.1129   83.3089   33.0285 H   0  0  0  0  0  0  0  0  0  0  0  0
   59.0160   82.4203   28.9359 H   0  0  0  0  0  0  0  0  0  0  0  0
   57.0531   80.7282   27.4051 H   0  0  0  0  0  0  0  0  0  0  0  0
   56.4513   81.9722   26.0734 H   0  0  0  0  0  0  0  0  0  0  0  0
   55.3795   82.3697   24.6922 H   0  0  0  0  0  0  0  0  0  0  0  0
   55.1880   83.2780   27.5939 H   0  0  0  0  0  0  0  0  0  0  0  0
   55.2298   84.2681   26.0721 H   0  0  0  0  0  0  0  0  0  0  0  0
   52.9357   83.0346   27.4838 H   0  0  0  0  0  0  0  0  0  0  0  0
   53.0111   84.4341   26.3356 H   0  0  0  0  0  0  0  0  0  0  0  0
   51.6573   82.5642   25.4330 H   0  0  0  0  0  0  0  0  0  0  0  0
   53.1328   82.9016   24.4392 H   0  0  0  0  0  0  0  0  0  0  0  0
   52.5144   80.5924   26.2730 H   0  0  0  0  0  0  0  0  0  0  0  0
   54.0778   79.7840   24.0353 H   0  0  0  0  0  0  0  0  0  0  0  0
   52.3063   79.4997   24.3804 H   0  0  0  0  0  0  0  0  0  0  0  0
   52.9047   82.1527   23.2747 H   0  0  0  0  0  0  0  0  0  0  0  0
   53.3066   80.7376   22.1825 H   0  0  0  0  0  0  0  0  0  0  0  0
   51.7900   81.0470   20.6130 H   0  0  0  0  0  0  0  0  0  0  0  0
   50.1010   80.8480   20.9580 H   0  0  0  0  0  0  0  0  0  0  0  0
  1  2  1  0
  2  3  1  0
  3  4  1  0
  4  5  2  0
  5  6  1  0
  6  7  1  0
  7  8  1  0
  8  9  1  0
  9 10  1  0
 10 11  1  0
 11 12  2  0
 12 13  1  0
 13 14  2  0
 14 15  1  0
 14 16  1  0
  7 17  2  0
 17 18  1  0
 18 19  1  0
 19 20  1  0
 20 21  1  0
 21 22  1  0
 22 23  1  0
 23 24  1  0
 24 25  1  0
 25 26  1  0
 26 27  1  0
 27 28  1  0
 27 29  2  0
 18 30  2  0
 30 31  1  0
 31  3  2  0
 31  6  1  0
 16 10  2  0
 24 19  1  0
  1 32  1  0
  1 33  1  0
  1 34  1  0
  2 35  1  0
  2 36  1  0
  4 37  1  0
  8 38  1  0
  9 39  1  0
  9 40  1  0
 11 41  1  0
 12 42  1  0
 13 43  1  0
 16 44  1  0
 17 45  1  0
 20 46  1  0
 20 47  1  0
 21 48  1  0
 21 49  1  0
 22 50  1  0
 22 51  1  0
 23 52  1  0
 23 53  1  0
 24 54  1  0
 25 55  1  0
 25 56  1  0
 26 57  1  0
 26 58  1  0
 28 59  1  0
 28 60  1  0
M  CHG  2  14   1  15  -1
M  END
>  <meeko>  (1) 
{"is_sidechain": false}

>  <smiles>  (1) 
CCc1cnn2c(NCc3ccc[n+]([O-])c3)cc(N3CCCCC3CCC(N)=O)nc12

>  <vina_score>  (1) 
-9.885

>  <job_id>  (1) 
dc30b3c7c216e784

$$$$
