
     RDKit          3D

 54 58  0  0  0  0  0  0  0  0999 V2000
   60.8670   81.0710   32.7380 N   0  0  0  0  0  0  0  0  0  0  0  0
   60.0310   80.9870   31.6030 C   0  0  0  0  0  0  0  0  0  0  0  0
   58.9560   80.0920   31.6130 C   0  0  0  0  0  0  0  0  0  0  0  0
   58.1900   79.8920   30.4630 C   0  0  0  0  0  0  0  0  0  0  0  0
   58.5150   80.5450   29.2740 C   0  0  0  0  0  0  0  0  0  0  0  0
   57.7430   80.3370   28.1240 N   0  0  0  0  0  0  0  0  0  0  0  0
   56.6620   81.0390   28.0300 C   0  0  0  0  0  0  0  0  0  0  0  0
   55.7240   80.9570   26.9050 C   0  0  0  0  0  0  0  0  0  0  0  0
   55.6130   81.9720   25.8130 C   0  0  0  0  0  0  0  0  0  0  0  0
   56.2360   83.0080   25.6870 O   0  0  0  0  0  0  0  0  0  0  0  0
   54.6860   81.4800   24.9200 N   0  0  0  0  0  0  0  0  0  0  0  0
   54.2360   80.2730   25.3230 C   0  0  0  0  0  0  0  0  0  0  0  0
   53.4040   79.4390   24.6960 C   0  0  0  0  0  0  0  0  0  0  0  0
   53.0960   78.1500   25.2990 C   0  0  0  0  0  0  0  0  0  0  0  0
   53.5750   77.7730   26.5060 C   0  0  0  0  0  0  0  0  0  0  0  0
   53.2680   76.5670   27.1130 N   0  0  0  0  0  0  0  0  0  0  0  0
   53.6400   76.2700   28.3990 C   0  0  0  0  0  0  0  0  0  0  0  0
   54.3760   77.1170   29.1340 C   0  0  0  0  0  0  0  0  0  0  0  0
   54.7970   78.3780   28.5420 C   0  0  0  0  0  0  0  0  0  0  0  0
   54.4690   78.7150   27.2740 C   0  0  0  0  0  0  0  0  0  0  0  0
   54.8610   79.9660   26.6010 C   0  0  0  0  0  0  0  0  0  0  0  0
   59.6040   81.4180   29.2460 C   0  0  0  0  0  0  0  0  0  0  0  0
   60.3770   81.6360   30.3970 C   0  0  0  0  0  0  0  0  0  0  0  0
   61.5120   82.4740   30.3500 N   0  0  0  0  0  0  0  0  0  0  0  0
   61.2640   83.5700   30.8990 N   0  0  0  0  0  0  0  0  0  0  0  0
   62.3910   84.4130   30.8690 C   0  0  0  0  0  0  0  0  0  0  0  0
   62.2410   85.7580   31.2300 C   0  0  0  0  0  0  0  0  0  0  0  0
   63.3270   86.6350   31.1910 C   0  0  0  0  0  0  0  0  0  0  0  0
   64.5780   86.1630   30.7840 C   0  0  0  0  0  0  0  0  0  0  0  0
   65.9510   87.2750   30.7030 S   0  0  0  0  0  0  0  0  0  0  0  0
   66.8060   86.6730   29.3890 N   0  0  0  0  0  0  0  0  0  0  0  0
   65.4830   88.5820   30.3070 O   0  0  0  0  0  0  0  0  0  0  0  0
   66.7990   87.0700   31.8540 O   0  0  0  0  0  0  0  0  0  0  0  0
   64.7420   84.8320   30.3930 C   0  0  0  0  0  0  0  0  0  0  0  0
   63.6480   83.9630   30.4360 C   0  0  0  0  0  0  0  0  0  0  0  0
   60.5570   81.7520   33.4230 H   0  0  0  0  0  0  0  0  0  0  0  0
   61.8420   81.1950   32.4700 H   0  0  0  0  0  0  0  0  0  0  0  0
   58.7124   79.5417   32.5338 H   0  0  0  0  0  0  0  0  0  0  0  0
   57.3239   79.2146   30.4948 H   0  0  0  0  0  0  0  0  0  0  0  0
   56.4309   81.7417   28.8441 H   0  0  0  0  0  0  0  0  0  0  0  0
   54.4520   81.9570   24.0640 H   0  0  0  0  0  0  0  0  0  0  0  0
   52.9551   79.7227   23.7327 H   0  0  0  0  0  0  0  0  0  0  0  0
   52.4460   77.4533   24.7493 H   0  0  0  0  0  0  0  0  0  0  0  0
   52.6280   75.9420   26.6390 H   0  0  0  0  0  0  0  0  0  0  0  0
   53.3266   75.3120   28.8394 H   0  0  0  0  0  0  0  0  0  0  0  0
   54.6566   76.8627   30.1668 H   0  0  0  0  0  0  0  0  0  0  0  0
   55.3986   79.0763   29.1424 H   0  0  0  0  0  0  0  0  0  0  0  0
   59.8589   81.9405   28.3122 H   0  0  0  0  0  0  0  0  0  0  0  0
   61.2553   86.1282   31.5483 H   0  0  0  0  0  0  0  0  0  0  0  0
   63.1989   87.6890   31.4783 H   0  0  0  0  0  0  0  0  0  0  0  0
   67.4390   87.3880   29.0310 H   0  0  0  0  0  0  0  0  0  0  0  0
   67.2710   85.8030   29.6490 H   0  0  0  0  0  0  0  0  0  0  0  0
   65.7241   84.4707   30.0540 H   0  0  0  0  0  0  0  0  0  0  0  0
   63.7736   82.9148   30.1271 H   0  0  0  0  0  0  0  0  0  0  0  0
  1  2  1  0
  2  3  1  0
  3  4  2  0
  4  5  1  0
  5  6  1  0
  6  7  2  3
  7  8  1  0
  8  9  1  0
  9 10  2  0
  9 11  1  0
 11 12  1  0
 12 13  2  0
 13 14  1  0
 14 15  2  0
 15 16  1  0
 16 17  1  0
 17 18  2  0
 18 19  1  0
 19 20  2  0
 20 21  1  0
  5 22  2  0
 22 23  1  0
 23 24  1  0
 24 25  2  3
 25 26  1  0
 26 27  1  0
 27 28  2  0
 28 29  1  0
 29 30  1  0
 30 31  1  0
 30 32  2  0
 30 33  2  0
 29 34  2  0
 34 35  1  0
 23  2  2  0
 35 26  2  0
 21  8  2  0
 21 12  1  0
 20 15  1  0
  1 36  1  0
  1 37  1  0
  3 38  1  0
  4 39  1  0
  7 40  1  0
 11 41  1  0
 13 42  1  0
 14 43  1  0
 16 44  1  0
 17 45  1  0
 18 46  1  0
 19 47  1  0
 22 48  1  0
 27 49  1  0
 28 50  1  0
 31 51  1  0
 31 52  1  0
 34 53  1  0
 35 54  1  0
M  END
>  <meeko>  (1) 
{"is_sidechain": false}

>  <smiles>  (1) 
Nc1ccc(N=Cc2c(=O)[nH]c3ccc4[nH]cccc4c23)cc1N=Nc1ccc(S(N)(=O)=O)cc1

>  <vina_score>  (1) 
-8.167

>  <job_id>  (1) 
dc70e719f7d9cce3

$$$$
