
     RDKit          3D

 52 53  0  0  0  0  0  0  0  0999 V2000
   52.5600   81.7320   21.2910 C   0  0  0  0  0  0  0  0  0  0  0  0
   52.8570   81.9640   22.6620 O   0  0  0  0  0  0  0  0  0  0  0  0
   51.9630   81.0450   23.7280 S   0  0  0  0  0  0  0  0  0  0  0  0
   53.0170   81.2250   25.2210 C   0  0  2  0  0  0  0  0  0  0  0  0
   52.6950   80.2080   26.1640 O   0  0  0  0  0  0  0  0  0  0  0  0
   53.4320   78.7650   26.0490 S   0  0  0  0  0  0  0  0  0  0  0  0
   52.5600   77.7620   26.6220 O   0  0  0  0  0  0  0  0  0  0  0  0
   53.9740   78.6150   24.7120 O   0  0  0  0  0  0  0  0  0  0  0  0
   54.8120   78.9190   27.1630 C   0  0  0  0  0  0  0  0  0  0  0  0
   54.8760   78.1450   28.3190 C   0  0  0  0  0  0  0  0  0  0  0  0
   55.9880   78.2640   29.1580 C   0  0  0  0  0  0  0  0  0  0  0  0
   57.0420   79.1510   28.8660 C   0  0  0  0  0  0  0  0  0  0  0  0
   58.1310   79.1990   29.7410 N   0  0  0  0  0  0  0  0  0  0  0  0
   58.9350   80.2260   30.2280 C   0  0  0  0  0  0  0  0  0  0  0  0
   59.6780   80.9930   29.4210 N   0  0  0  0  0  0  0  0  0  0  0  0
   60.4330   81.9550   29.9870 C   0  0  0  0  0  0  0  0  0  0  0  0
   60.4780   82.1860   31.3370 C   0  0  0  0  0  0  0  0  0  0  0  0
   61.3170   83.2520   31.9350 C   0  0  0  0  0  0  0  0  0  0  0  0
   61.9840   83.9860   30.9950 F   0  0  0  0  0  0  0  0  0  0  0  0
   60.6000   84.1580   32.6540 F   0  0  0  0  0  0  0  0  0  0  0  0
   62.2810   82.7740   32.7660 F   0  0  0  0  0  0  0  0  0  0  0  0
   59.6900   81.3520   32.0860 C   0  0  0  0  0  0  0  0  0  0  0  0
   59.6960   81.5370   33.4510 O   0  0  0  0  0  0  0  0  0  0  0  0
   59.8710   80.3610   34.2340 C   0  0  1  0  0  0  0  0  0  0  0  0
   61.3520   80.0750   34.4450 C   0  0  0  0  0  0  0  0  0  0  0  0
   59.3110   80.6070   35.5220 O   0  0  0  0  0  0  0  0  0  0  0  0
   58.9190   80.3790   31.5600 N   0  0  0  0  0  0  0  0  0  0  0  0
   56.9470   79.9130   27.6940 C   0  0  0  0  0  0  0  0  0  0  0  0
   55.8390   79.8070   26.8450 C   0  0  0  0  0  0  0  0  0  0  0  0
   52.8050   82.5860   25.9310 C   0  0  1  0  0  0  0  0  0  0  0  0
   53.7250   82.8230   27.1210 C   0  0  0  0  0  0  0  0  0  0  0  0
   52.9350   83.6940   25.0300 O   0  0  0  0  0  0  0  0  0  0  0  0
   51.6953   81.0566   21.2123 H   0  0  0  0  0  0  0  0  0  0  0  0
   52.3246   82.6878   20.8000 H   0  0  0  0  0  0  0  0  0  0  0  0
   53.4303   81.2722   20.8000 H   0  0  0  0  0  0  0  0  0  0  0  0
   54.0598   81.1516   24.8788 H   0  0  0  0  0  0  0  0  0  0  0  0
   54.0619   77.4488   28.5688 H   0  0  0  0  0  0  0  0  0  0  0  0
   56.0409   77.6495   30.0688 H   0  0  0  0  0  0  0  0  0  0  0  0
   58.4010   78.3320   30.1820 H   0  0  0  0  0  0  0  0  0  0  0  0
   61.0463   82.5891   29.3299 H   0  0  0  0  0  0  0  0  0  0  0  0
   59.3937   79.5137   33.7200 H   0  0  0  0  0  0  0  0  0  0  0  0
   61.5675   80.0334   35.5229 H   0  0  0  0  0  0  0  0  0  0  0  0
   61.6088   79.1107   33.9823 H   0  0  0  0  0  0  0  0  0  0  0  0
   61.9494   80.8744   33.9823 H   0  0  0  0  0  0  0  0  0  0  0  0
   59.8880   81.2700   35.9330 H   0  0  0  0  0  0  0  0  0  0  0  0
   57.7593   80.6084   27.4359 H   0  0  0  0  0  0  0  0  0  0  0  0
   55.7790   80.4198   25.9335 H   0  0  0  0  0  0  0  0  0  0  0  0
   51.7739   82.5240   26.3091 H   0  0  0  0  0  0  0  0  0  0  0  0
   53.1617   82.6779   28.0546 H   0  0  0  0  0  0  0  0  0  0  0  0
   54.5630   82.1114   27.0840 H   0  0  0  0  0  0  0  0  0  0  0  0
   54.1149   83.8509   27.0840 H   0  0  0  0  0  0  0  0  0  0  0  0
   52.5880   84.4870   25.4830 H   0  0  0  0  0  0  0  0  0  0  0  0
  1  2  1  0
  2  3  1  0
  3  4  1  0
  4  5  1  0
  5  6  1  0
  6  7  2  0
  6  8  2  0
  6  9  1  0
  9 10  1  0
 10 11  2  0
 11 12  1  0
 12 13  1  0
 13 14  1  0
 14 15  2  0
 15 16  1  0
 16 17  2  0
 17 18  1  0
 18 19  1  0
 18 20  1  0
 18 21  1  0
 17 22  1  0
 22 23  1  0
 23 24  1  0
 24 25  1  0
 24 26  1  0
 22 27  2  0
 12 28  2  0
 28 29  1  0
  4 30  1  0
 30 31  1  0
 30 32  1  0
 29  9  2  0
 27 14  1  0
  1 33  1  0
  1 34  1  0
  1 35  1  0
  4 36  1  6
 10 37  1  0
 11 38  1  0
 13 39  1  0
 16 40  1  0
 24 41  1  6
 25 42  1  0
 25 43  1  0
 25 44  1  0
 26 45  1  0
 28 46  1  0
 29 47  1  0
 30 48  1  1
 31 49  1  0
 31 50  1  0
 31 51  1  0
 32 52  1  0
M  END
>  <meeko>  (1) 
{"is_sidechain": false}

>  <smiles>  (1) 
COS[C@H](OS(=O)(=O)c1ccc(Nc2ncc(C(F)(F)F)c(O[C@@H](C)O)n2)cc1)[C@@H](C)O

>  <vina_score>  (1) 
-7.764

>  <job_id>  (1) 
dcd64627655540de

$$$$
