
     RDKit          3D

 45 46  0  0  0  0  0  0  0  0999 V2000
   57.8110   81.3510   33.1150 C   0  0  0  0  0  0  0  0  0  0  0  0
   58.7740   81.3540   31.9350 C   0  0  0  0  0  0  0  0  0  0  0  0
   58.4880   80.2260   30.9470 C   0  0  0  0  0  0  0  0  0  0  0  0
   58.9380   80.5390   29.5300 C   0  0  0  0  0  0  0  0  0  0  0  0
   59.9070   81.2640   29.2900 O   0  0  0  0  0  0  0  0  0  0  0  0
   58.1720   79.8470   28.4060 C   0  0  0  0  0  0  0  0  0  0  0  0
   57.7890   78.4890   28.7800 N   0  0  0  0  0  0  0  0  0  0  0  0
   56.4400   78.2080   28.6090 C   0  0  0  0  0  0  0  0  0  0  0  0
   55.7890   77.4460   29.5030 N   0  0  0  0  0  0  0  0  0  0  0  0
   54.4780   77.2240   29.2700 C   0  0  0  0  0  0  0  0  0  0  0  0
   53.8050   77.7330   28.1900 C   0  0  0  0  0  0  0  0  0  0  0  0
   52.5030   77.4800   28.0120 F   0  0  0  0  0  0  0  0  0  0  0  0
   54.5540   78.4980   27.3230 C   0  0  0  0  0  0  0  0  0  0  0  0
   53.9750   79.1400   26.1430 C   0  0  0  0  0  0  0  0  0  0  0  0
   53.4180   78.5480   25.0250 C   0  0  0  0  0  0  0  0  0  0  0  0
   52.9290   79.4720   24.1540 N   0  0  0  0  0  0  0  0  0  0  0  0
   53.1660   80.6460   24.7010 C   0  0  0  0  0  0  0  0  0  0  0  0
   52.7450   81.9300   24.0830 C   0  0  0  0  0  0  0  0  0  0  0  0
   53.8580   80.5050   25.8940 N   0  0  0  0  0  0  0  0  0  0  0  0
   54.4030   81.5730   26.7360 C   0  0  0  0  0  0  0  0  0  0  0  0
   55.5590   82.3530   26.1010 C   0  0  0  0  0  0  0  0  0  0  0  0
   53.3100   82.5090   27.2530 C   0  0  0  0  0  0  0  0  0  0  0  0
   55.8670   78.7490   27.5270 N   0  0  0  0  0  0  0  0  0  0  0  0
   58.3827   81.3528   34.0548 H   0  0  0  0  0  0  0  0  0  0  0  0
   57.1746   82.2472   33.0712 H   0  0  0  0  0  0  0  0  0  0  0  0
   57.1802   80.4509   33.0712 H   0  0  0  0  0  0  0  0  0  0  0  0
   58.6845   82.3157   31.4086 H   0  0  0  0  0  0  0  0  0  0  0  0
   59.7893   81.2037   32.3306 H   0  0  0  0  0  0  0  0  0  0  0  0
   59.0131   79.3216   31.2882 H   0  0  0  0  0  0  0  0  0  0  0  0
   57.3972   80.0866   30.9189 H   0  0  0  0  0  0  0  0  0  0  0  0
   57.2640   80.4262   28.1823 H   0  0  0  0  0  0  0  0  0  0  0  0
   58.8268   79.7915   27.5239 H   0  0  0  0  0  0  0  0  0  0  0  0
   58.2780   77.7750   28.2410 H   0  0  0  0  0  0  0  0  0  0  0  0
   53.9202   76.6014   29.9850 H   0  0  0  0  0  0  0  0  0  0  0  0
   53.3752   77.4614   24.8594 H   0  0  0  0  0  0  0  0  0  0  0  0
   52.5067   82.6567   24.8736 H   0  0  0  0  0  0  0  0  0  0  0  0
   53.5617   82.3217   23.4589 H   0  0  0  0  0  0  0  0  0  0  0  0
   51.8549   81.7621   23.4589 H   0  0  0  0  0  0  0  0  0  0  0  0
   54.8438   81.0529   27.5993 H   0  0  0  0  0  0  0  0  0  0  0  0
   56.1919   82.7800   26.8929 H   0  0  0  0  0  0  0  0  0  0  0  0
   56.1598   81.6749   25.4771 H   0  0  0  0  0  0  0  0  0  0  0  0
   55.1551   83.1640   25.4771 H   0  0  0  0  0  0  0  0  0  0  0  0
   53.3142   82.5054   28.3530 H   0  0  0  0  0  0  0  0  0  0  0  0
   53.4989   83.5297   26.8890 H   0  0  0  0  0  0  0  0  0  0  0  0
   52.3305   82.1653   26.8890 H   0  0  0  0  0  0  0  0  0  0  0  0
  1  2  1  0
  2  3  1  0
  3  4  1  0
  4  5  2  0
  4  6  1  0
  6  7  1  0
  7  8  1  0
  8  9  2  0
  9 10  1  0
 10 11  2  0
 11 12  1  0
 11 13  1  0
 13 14  1  0
 14 15  2  0
 15 16  1  0
 16 17  2  0
 17 18  1  0
 17 19  1  0
 19 20  1  0
 20 21  1  0
 20 22  1  0
 13 23  2  0
 23  8  1  0
 19 14  1  0
  1 24  1  0
  1 25  1  0
  1 26  1  0
  2 27  1  0
  2 28  1  0
  3 29  1  0
  3 30  1  0
  6 31  1  0
  6 32  1  0
  7 33  1  0
 10 34  1  0
 15 35  1  0
 18 36  1  0
 18 37  1  0
 18 38  1  0
 20 39  1  0
 21 40  1  0
 21 41  1  0
 21 42  1  0
 22 43  1  0
 22 44  1  0
 22 45  1  0
M  END
>  <meeko>  (1) 
{"is_sidechain": false}

>  <smiles>  (1) 
CCCC(=O)CNc1ncc(F)c(-c2cnc(C)n2C(C)C)n1

>  <vina_score>  (1) 
-7.617

>  <job_id>  (1) 
dd7d6b5a02c51a26

$$$$
