
     RDKit          3D

 55 58  0  0  0  0  0  0  0  0999 V2000
   60.9850   81.3570   30.1830 N   0  0  0  0  0  0  0  0  0  0  0  0
   59.7270   81.0230   31.0160 S   0  0  0  0  0  0  0  0  0  0  0  0
   59.7340   79.9710   32.0180 O   0  0  0  0  0  0  0  0  0  0  0  0
   59.1730   82.4940   31.8370 C   0  0  0  0  0  0  0  0  0  0  0  0
   57.8280   82.3620   32.5190 C   0  0  0  0  0  0  0  0  0  0  0  0
   57.9230   81.4700   33.6250 O   0  0  0  0  0  0  0  0  0  0  0  0
   58.4280   80.6100   29.8670 C   0  0  0  0  0  0  0  0  0  0  0  0
   58.1760   81.4620   28.7880 C   0  0  0  0  0  0  0  0  0  0  0  0
   57.1390   81.1650   27.8990 C   0  0  0  0  0  0  0  0  0  0  0  0
   56.3470   80.0220   28.0830 C   0  0  0  0  0  0  0  0  0  0  0  0
   55.2650   79.7050   27.1320 C   0  0  0  0  0  0  0  0  0  0  0  0
   55.0800   80.5020   26.0640 C   0  0  0  0  0  0  0  0  0  0  0  0
   53.9630   80.1650   25.1120 C   0  0  0  0  0  0  0  0  0  0  0  0
   53.7950   80.9990   24.0260 N   0  0  0  0  0  0  0  0  0  0  0  0
   52.6910   80.9670   23.0700 C   0  0  2  0  0  0  0  0  0  0  0  0
   52.9120   81.9530   21.9120 C   0  0  0  0  0  0  0  0  0  0  0  0
   51.6010   82.4220   21.2680 C   0  0  0  0  0  0  0  0  0  0  0  0
   50.4980   81.3620   21.3160 C   0  0  1  0  0  0  0  0  0  0  0  0
   50.9240   80.1750   20.5680 N   0  0  0  0  0  0  0  0  0  0  0  0
   50.1620   80.9820   22.7670 C   0  0  0  0  0  0  0  0  0  0  0  0
   51.3310   81.1380   23.7480 C   0  0  0  0  0  0  0  0  0  0  0  0
   53.1790   79.1330   25.2940 N   0  0  0  0  0  0  0  0  0  0  0  0
   53.3910   78.3510   26.3910 C   0  0  0  0  0  0  0  0  0  0  0  0
   52.7400   77.2250   26.8360 C   0  0  0  0  0  0  0  0  0  0  0  0
   53.4030   76.8630   28.0150 C   0  0  0  0  0  0  0  0  0  0  0  0
   54.4050   77.6850   28.3180 N   0  0  0  0  0  0  0  0  0  0  0  0
   54.4090   78.6100   27.3140 N   0  0  0  0  0  0  0  0  0  0  0  0
   56.6000   79.1860   29.1810 C   0  0  0  0  0  0  0  0  0  0  0  0
   57.6330   79.4800   30.0750 C   0  0  0  0  0  0  0  0  0  0  0  0
   61.3320   80.5100   29.7260 H   0  0  0  0  0  0  0  0  0  0  0  0
   59.9194   82.7647   32.5983 H   0  0  0  0  0  0  0  0  0  0  0  0
   59.0556   83.2622   31.0585 H   0  0  0  0  0  0  0  0  0  0  0  0
   57.5031   83.3504   32.8762 H   0  0  0  0  0  0  0  0  0  0  0  0
   57.0978   81.9644   31.7988 H   0  0  0  0  0  0  0  0  0  0  0  0
   58.6410   80.8420   33.4250 H   0  0  0  0  0  0  0  0  0  0  0  0
   58.7908   82.3619   28.6391 H   0  0  0  0  0  0  0  0  0  0  0  0
   56.9423   81.8334   27.0478 H   0  0  0  0  0  0  0  0  0  0  0  0
   55.7264   81.3751   25.8911 H   0  0  0  0  0  0  0  0  0  0  0  0
   54.2770   81.8890   24.0520 H   0  0  0  0  0  0  0  0  0  0  0  0
   52.6777   79.9618   22.6235 H   0  0  0  0  0  0  0  0  0  0  0  0
   53.4478   82.8328   22.2977 H   0  0  0  0  0  0  0  0  0  0  0  0
   53.4905   81.4280   21.1376 H   0  0  0  0  0  0  0  0  0  0  0  0
   51.2496   83.3178   21.8009 H   0  0  0  0  0  0  0  0  0  0  0  0
   51.8111   82.6302   20.2085 H   0  0  0  0  0  0  0  0  0  0  0  0
   49.5904   81.7790   20.8551 H   0  0  0  0  0  0  0  0  0  0  0  0
   51.9180   80.2520   20.3490 H   0  0  0  0  0  0  0  0  0  0  0  0
   50.8340   79.3510   21.1630 H   0  0  0  0  0  0  0  0  0  0  0  0
   49.3373   81.6245   23.1091 H   0  0  0  0  0  0  0  0  0  0  0  0
   49.8978   79.9142   22.7596 H   0  0  0  0  0  0  0  0  0  0  0  0
   51.2839   82.1414   24.1962 H   0  0  0  0  0  0  0  0  0  0  0  0
   51.2357   80.3501   24.5096 H   0  0  0  0  0  0  0  0  0  0  0  0
   51.8836   76.7181   26.3673 H   0  0  0  0  0  0  0  0  0  0  0  0
   53.1252   75.9916   28.6261 H   0  0  0  0  0  0  0  0  0  0  0  0
   55.9799   78.2914   29.3395 H   0  0  0  0  0  0  0  0  0  0  0  0
   57.8194   78.8247   30.9386 H   0  0  0  0  0  0  0  0  0  0  0  0
  1  2  2  0
  2  3  2  0
  2  4  1  0
  4  5  1  0
  5  6  1  0
  2  7  1  0
  7  8  1  0
  8  9  2  0
  9 10  1  0
 10 11  1  0
 11 12  2  0
 12 13  1  0
 13 14  1  0
 14 15  1  0
 15 16  1  0
 16 17  1  0
 17 18  1  0
 18 19  1  0
 18 20  1  0
 20 21  1  0
 13 22  2  0
 22 23  1  0
 23 24  2  0
 24 25  1  0
 25 26  2  0
 26 27  1  0
 10 28  2  0
 28 29  1  0
 29  7  2  0
 27 11  1  0
 21 15  1  0
 27 23  1  0
  1 30  1  0
  4 31  1  0
  4 32  1  0
  5 33  1  0
  5 34  1  0
  6 35  1  0
  8 36  1  0
  9 37  1  0
 12 38  1  0
 14 39  1  0
 15 40  1  1
 16 41  1  0
 16 42  1  0
 17 43  1  0
 17 44  1  0
 18 45  1  1
 19 46  1  0
 19 47  1  0
 20 48  1  0
 20 49  1  0
 21 50  1  0
 21 51  1  0
 24 52  1  0
 25 53  1  0
 28 54  1  0
 29 55  1  0
M  END
>  <meeko>  (1) 
{"is_sidechain": false}

>  <smiles>  (1) 
N=S(=O)(CCO)c1ccc(-c2cc(N[C@H]3CC[C@H](N)CC3)nc3ccnn23)cc1

>  <vina_score>  (1) 
-7.386

>  <job_id>  (1) 
dda2eca4f514dad0

$$$$
