
     RDKit          3D

 58 60  0  0  0  0  0  0  0  0999 V2000
   62.6780   79.8490   34.3990 C   0  0  0  0  0  0  0  0  0  0  0  0
   62.5560   81.2730   33.9180 C   0  0  0  0  0  0  0  0  0  0  0  0
   63.6020   81.7620   32.9470 C   0  0  0  0  0  0  0  0  0  0  0  0
   61.5700   81.9800   34.3600 N   0  0  0  0  0  0  0  0  0  0  0  0
   61.4450   83.3620   33.8940 C   0  0  0  0  0  0  0  0  0  0  0  0
   60.1680   83.4690   33.0640 C   0  0  0  0  0  0  0  0  0  0  0  0
   60.4350   83.2050   31.5960 C   0  0  0  0  0  0  0  0  0  0  0  0
   61.1810   83.9160   30.9240 O   0  0  0  0  0  0  0  0  0  0  0  0
   59.7620   82.0380   30.9460 C   0  0  0  0  0  0  0  0  0  0  0  0
   59.1720   81.0070   31.6800 C   0  0  0  0  0  0  0  0  0  0  0  0
   58.5520   79.9340   31.0220 C   0  0  0  0  0  0  0  0  0  0  0  0
   58.5100   79.8570   29.6270 C   0  0  0  0  0  0  0  0  0  0  0  0
   57.8980   78.8190   28.9170 N   0  0  0  0  0  0  0  0  0  0  0  0
   56.5850   78.3820   28.7800 C   0  0  0  0  0  0  0  0  0  0  0  0
   56.0150   77.5450   29.6620 N   0  0  0  0  0  0  0  0  0  0  0  0
   54.7390   77.1720   29.4300 C   0  0  0  0  0  0  0  0  0  0  0  0
   54.0110   77.6090   28.3570 C   0  0  0  0  0  0  0  0  0  0  0  0
   52.7480   77.2090   28.1690 F   0  0  0  0  0  0  0  0  0  0  0  0
   54.6600   78.4790   27.5120 C   0  0  0  0  0  0  0  0  0  0  0  0
   54.0330   79.0070   26.3100 C   0  0  0  0  0  0  0  0  0  0  0  0
   53.3730   78.3050   25.3180 C   0  0  0  0  0  0  0  0  0  0  0  0
   52.9360   79.1230   24.3210 N   0  0  0  0  0  0  0  0  0  0  0  0
   53.3020   80.3370   24.6710 C   0  0  0  0  0  0  0  0  0  0  0  0
   53.0510   81.5550   23.8560 C   0  0  0  0  0  0  0  0  0  0  0  0
   53.9460   80.3300   25.9020 N   0  0  0  0  0  0  0  0  0  0  0  0
   54.3680   81.5430   26.6050 C   0  0  0  0  0  0  0  0  0  0  0  0
   53.2000   82.4810   26.9060 C   0  0  0  0  0  0  0  0  0  0  0  0
   55.5550   82.2740   25.9700 C   0  0  0  0  0  0  0  0  0  0  0  0
   55.9400   78.8670   27.7040 N   0  0  0  0  0  0  0  0  0  0  0  0
   59.1040   80.9030   28.9040 C   0  0  0  0  0  0  0  0  0  0  0  0
   59.7240   81.9780   29.5510 C   0  0  0  0  0  0  0  0  0  0  0  0
   62.6794   79.8323   35.4989 H   0  0  0  0  0  0  0  0  0  0  0  0
   61.8269   79.2613   34.0245 H   0  0  0  0  0  0  0  0  0  0  0  0
   63.6167   79.4146   34.0245 H   0  0  0  0  0  0  0  0  0  0  0  0
   64.4609   82.1635   33.5047 H   0  0  0  0  0  0  0  0  0  0  0  0
   63.9343   80.9259   32.3141 H   0  0  0  0  0  0  0  0  0  0  0  0
   63.1735   82.5531   32.3141 H   0  0  0  0  0  0  0  0  0  0  0  0
   61.3873   84.0425   34.7563 H   0  0  0  0  0  0  0  0  0  0  0  0
   62.3189   83.6398   33.2864 H   0  0  0  0  0  0  0  0  0  0  0  0
   59.4394   82.7320   33.4328 H   0  0  0  0  0  0  0  0  0  0  0  0
   59.7762   84.4919   33.1646 H   0  0  0  0  0  0  0  0  0  0  0  0
   59.1934   81.0362   32.7794 H   0  0  0  0  0  0  0  0  0  0  0  0
   58.0880   79.1344   31.6181 H   0  0  0  0  0  0  0  0  0  0  0  0
   58.5080   78.1820   28.4280 H   0  0  0  0  0  0  0  0  0  0  0  0
   54.2598   76.4815   30.1396 H   0  0  0  0  0  0  0  0  0  0  0  0
   53.2194   77.2159   25.3326 H   0  0  0  0  0  0  0  0  0  0  0  0
   52.8744   82.4121   24.5224 H   0  0  0  0  0  0  0  0  0  0  0  0
   53.9261   81.7583   23.2213 H   0  0  0  0  0  0  0  0  0  0  0  0
   52.1668   81.3957   23.2213 H   0  0  0  0  0  0  0  0  0  0  0  0
   54.7521   81.1799   27.5697 H   0  0  0  0  0  0  0  0  0  0  0  0
   53.0790   82.5782   27.9950 H   0  0  0  0  0  0  0  0  0  0  0  0
   53.4025   83.4703   26.4698 H   0  0  0  0  0  0  0  0  0  0  0  0
   52.2777   82.0698   26.4698 H   0  0  0  0  0  0  0  0  0  0  0  0
   56.2052   82.6744   26.7618 H   0  0  0  0  0  0  0  0  0  0  0  0
   56.1271   81.5715   25.3461 H   0  0  0  0  0  0  0  0  0  0  0  0
   55.1851   83.1010   25.3461 H   0  0  0  0  0  0  0  0  0  0  0  0
   59.0818   80.8773   27.8045 H   0  0  0  0  0  0  0  0  0  0  0  0
   60.1845   82.7811   28.9569 H   0  0  0  0  0  0  0  0  0  0  0  0
  1  2  1  0
  2  3  1  0
  2  4  2  3
  4  5  1  0
  5  6  1  0
  6  7  1  0
  7  8  2  0
  7  9  1  0
  9 10  1  0
 10 11  2  0
 11 12  1  0
 12 13  1  0
 13 14  1  0
 14 15  2  0
 15 16  1  0
 16 17  2  0
 17 18  1  0
 17 19  1  0
 19 20  1  0
 20 21  2  0
 21 22  1  0
 22 23  2  0
 23 24  1  0
 23 25  1  0
 25 26  1  0
 26 27  1  0
 26 28  1  0
 19 29  2  0
 12 30  2  0
 30 31  1  0
 31  9  2  0
 29 14  1  0
 25 20  1  0
  1 32  1  0
  1 33  1  0
  1 34  1  0
  3 35  1  0
  3 36  1  0
  3 37  1  0
  5 38  1  0
  5 39  1  0
  6 40  1  0
  6 41  1  0
 10 42  1  0
 11 43  1  0
 13 44  1  0
 16 45  1  0
 21 46  1  0
 24 47  1  0
 24 48  1  0
 24 49  1  0
 26 50  1  0
 27 51  1  0
 27 52  1  0
 27 53  1  0
 28 54  1  0
 28 55  1  0
 28 56  1  0
 30 57  1  0
 31 58  1  0
M  END
>  <meeko>  (1) 
{"is_sidechain": false}

>  <smiles>  (1) 
CC(C)=NCCC(=O)c1ccc(Nc2ncc(F)c(-c3cnc(C)n3C(C)C)n2)cc1

>  <vina_score>  (1) 
-8.716

>  <job_id>  (1) 
ddc0196efc58f269

$$$$
