
     RDKit          3D

 44 47  0  0  0  0  0  0  0  0999 V2000
   58.4210   78.9500   28.0120 O   0  0  0  0  0  0  0  0  0  0  0  0
   58.2240   79.2310   29.1940 C   0  0  0  0  0  0  0  0  0  0  0  0
   59.3100   79.8640   30.0510 C   0  0  0  0  0  0  0  0  0  0  0  0
   58.9040   81.1610   30.7140 C   0  0  0  0  0  0  0  0  0  0  0  0
   58.4990   81.1690   32.0600 C   0  0  0  0  0  0  0  0  0  0  0  0
   58.1400   82.3670   32.6790 C   0  0  0  0  0  0  0  0  0  0  0  0
   58.1830   83.5530   31.9560 C   0  0  0  0  0  0  0  0  0  0  0  0
   57.8410   84.7020   32.5520 F   0  0  0  0  0  0  0  0  0  0  0  0
   58.5770   83.5640   30.6240 C   0  0  0  0  0  0  0  0  0  0  0  0
   58.9350   82.3680   29.9990 C   0  0  0  0  0  0  0  0  0  0  0  0
   57.0510   78.9500   29.8730 N   0  0  0  0  0  0  0  0  0  0  0  0
   55.9790   78.3290   29.2590 C   0  0  0  0  0  0  0  0  0  0  0  0
   55.5000   77.0890   29.6060 N   0  0  0  0  0  0  0  0  0  0  0  0
   54.4330   76.6760   28.8890 N   0  0  0  0  0  0  0  0  0  0  0  0
   54.1910   77.6830   28.0350 C   0  0  0  0  0  0  0  0  0  0  0  0
   53.1850   77.8140   27.0630 C   0  0  0  0  0  0  0  0  0  0  0  0
   53.2420   79.0280   26.3400 C   0  0  0  0  0  0  0  0  0  0  0  0
   54.2470   80.0300   26.5460 C   0  0  0  0  0  0  0  0  0  0  0  0
   54.2100   81.2570   25.8040 N   0  0  0  0  0  0  0  0  0  0  0  0
   53.4650   81.3390   24.5250 C   0  0  0  0  0  0  0  0  0  0  0  0
   52.5610   82.5690   24.5990 C   0  0  0  0  0  0  0  0  0  0  0  0
   53.3240   83.6150   25.3950 C   0  0  0  0  0  0  0  0  0  0  0  0
   54.0180   82.6840   26.7430 S   0  0  0  0  0  0  0  0  0  0  0  0
   55.3260   83.1960   27.0850 O   0  0  0  0  0  0  0  0  0  0  0  0
   52.9770   82.4770   27.7260 O   0  0  0  0  0  0  0  0  0  0  0  0
   55.2460   79.9350   27.5370 C   0  0  0  0  0  0  0  0  0  0  0  0
   55.1610   78.7330   28.2360 C   0  0  0  0  0  0  0  0  0  0  0  0
   59.5889   79.1477   30.8378 H   0  0  0  0  0  0  0  0  0  0  0  0
   60.1441   80.1038   29.3752 H   0  0  0  0  0  0  0  0  0  0  0  0
   58.4649   80.2273   32.6275 H   0  0  0  0  0  0  0  0  0  0  0  0
   57.8249   82.3725   33.7329 H   0  0  0  0  0  0  0  0  0  0  0  0
   58.6068   84.5105   30.0643 H   0  0  0  0  0  0  0  0  0  0  0  0
   59.2423   82.3719   28.9428 H   0  0  0  0  0  0  0  0  0  0  0  0
   56.9470   79.2290   30.8420 H   0  0  0  0  0  0  0  0  0  0  0  0
   55.8730   76.4880   30.3370 H   0  0  0  0  0  0  0  0  0  0  0  0
   52.4224   77.0424   26.8810 H   0  0  0  0  0  0  0  0  0  0  0  0
   52.4722   79.2142   25.5767 H   0  0  0  0  0  0  0  0  0  0  0  0
   54.1691   81.4401   23.6859 H   0  0  0  0  0  0  0  0  0  0  0  0
   52.8688   80.4286   24.3645 H   0  0  0  0  0  0  0  0  0  0  0  0
   52.3448   82.9436   23.5876 H   0  0  0  0  0  0  0  0  0  0  0  0
   51.5990   82.3288   25.0753 H   0  0  0  0  0  0  0  0  0  0  0  0
   54.1160   84.0734   24.7846 H   0  0  0  0  0  0  0  0  0  0  0  0
   52.6876   84.4469   25.7310 H   0  0  0  0  0  0  0  0  0  0  0  0
   55.9984   80.7130   27.7335 H   0  0  0  0  0  0  0  0  0  0  0  0
  1  2  2  0
  2  3  1  0
  3  4  1  0
  4  5  1  0
  5  6  2  0
  6  7  1  0
  7  8  1  0
  7  9  2  0
  9 10  1  0
  2 11  1  0
 11 12  1  0
 12 13  1  0
 13 14  1  0
 14 15  2  0
 15 16  1  0
 16 17  2  0
 17 18  1  0
 18 19  1  0
 19 20  1  0
 20 21  1  0
 21 22  1  0
 22 23  1  0
 23 24  2  0
 23 25  2  0
 18 26  2  0
 26 27  1  0
 10  4  2  0
 27 12  2  0
 27 15  1  0
 23 19  1  0
  3 28  1  0
  3 29  1  0
  5 30  1  0
  6 31  1  0
  9 32  1  0
 10 33  1  0
 11 34  1  0
 13 35  1  0
 16 36  1  0
 17 37  1  0
 20 38  1  0
 20 39  1  0
 21 40  1  0
 21 41  1  0
 22 42  1  0
 22 43  1  0
 26 44  1  0
M  END
>  <meeko>  (1) 
{"is_sidechain": false}

>  <smiles>  (1) 
O=C(Cc1ccc(F)cc1)Nc1[nH]nc2ccc(N3CCCS3(=O)=O)cc12

>  <vina_score>  (1) 
-9.285

>  <job_id>  (1) 
dddb6388ea6c7a88

$$$$
