
     RDKit          3D

 44 45  0  0  0  0  0  0  0  0999 V2000
   53.6850   78.3570   24.2710 C   0  0  0  0  0  0  0  0  0  0  0  0
   53.4400   79.7810   24.7630 C   0  0  2  0  0  0  0  0  0  0  0  0
   53.6850   80.6760   23.6760 O   0  0  0  0  0  0  0  0  0  0  0  0
   54.2460   80.2080   26.0280 C   0  0  1  0  0  0  0  0  0  0  0  0
   54.3000   81.7290   26.1750 C   0  0  0  0  0  0  0  0  0  0  0  0
   53.6830   79.6530   27.2830 N   0  0  0  0  0  0  0  0  0  0  0  0
   54.4950   78.7070   27.9180 C   0  0  0  0  0  0  0  0  0  0  0  0
   55.7650   79.1260   28.1100 N   0  0  0  0  0  0  0  0  0  0  0  0
   56.6260   78.2890   28.7200 C   0  0  0  0  0  0  0  0  0  0  0  0
   57.9150   78.7890   28.8780 N   0  0  0  0  0  0  0  0  0  0  0  0
   58.4710   79.8200   29.6440 C   0  0  0  0  0  0  0  0  0  0  0  0
   58.1870   79.8570   31.0220 C   0  0  0  0  0  0  0  0  0  0  0  0
   58.7180   80.8490   31.8520 C   0  0  0  0  0  0  0  0  0  0  0  0
   59.5550   81.8200   31.3080 C   0  0  0  0  0  0  0  0  0  0  0  0
   60.2480   83.0860   32.3530 S   0  0  0  0  0  0  0  0  0  0  0  0
   60.0390   84.5650   31.3950 C   0  0  0  0  0  0  0  0  0  0  0  0
   59.3280   83.1740   33.5850 N   0  0  0  0  0  0  0  0  0  0  0  0
   61.6740   82.8350   32.4320 O   0  0  0  0  0  0  0  0  0  0  0  0
   59.8510   81.8110   29.9460 C   0  0  0  0  0  0  0  0  0  0  0  0
   59.3130   80.8110   29.1260 C   0  0  0  0  0  0  0  0  0  0  0  0
   56.2790   77.0720   29.1570 N   0  0  0  0  0  0  0  0  0  0  0  0
   55.0060   76.6810   28.9470 C   0  0  0  0  0  0  0  0  0  0  0  0
   54.0590   77.4600   28.3270 C   0  0  0  0  0  0  0  0  0  0  0  0
   52.3330   76.7670   28.0160 Br  0  0  0  0  0  0  0  0  0  0  0  0
   53.8005   77.6855   25.1346 H   0  0  0  0  0  0  0  0  0  0  0  0
   52.8304   78.0274   23.6619 H   0  0  0  0  0  0  0  0  0  0  0  0
   54.6007   78.3319   23.6619 H   0  0  0  0  0  0  0  0  0  0  0  0
   52.3931   79.8216   25.0982 H   0  0  0  0  0  0  0  0  0  0  0  0
   54.1750   80.1810   22.9910 H   0  0  0  0  0  0  0  0  0  0  0  0
   55.2563   79.8011   25.8741 H   0  0  0  0  0  0  0  0  0  0  0  0
   54.3094   81.9941   27.2425 H   0  0  0  0  0  0  0  0  0  0  0  0
   55.2123   82.1117   25.6941 H   0  0  0  0  0  0  0  0  0  0  0  0
   53.4171   82.1754   25.6941 H   0  0  0  0  0  0  0  0  0  0  0  0
   52.8170   79.1570   27.0810 H   0  0  0  0  0  0  0  0  0  0  0  0
   58.5590   78.2280   28.3400 H   0  0  0  0  0  0  0  0  0  0  0  0
   57.5319   79.0874   31.4562 H   0  0  0  0  0  0  0  0  0  0  0  0
   58.4768   80.8623   32.9251 H   0  0  0  0  0  0  0  0  0  0  0  0
   59.9175   85.4250   32.0700 H   0  0  0  0  0  0  0  0  0  0  0  0
   60.9243   84.7191   30.7606 H   0  0  0  0  0  0  0  0  0  0  0  0
   59.1457   84.4677   30.7606 H   0  0  0  0  0  0  0  0  0  0  0  0
   59.4000   82.3230   34.1460 H   0  0  0  0  0  0  0  0  0  0  0  0
   60.5039   82.5855   29.5172 H   0  0  0  0  0  0  0  0  0  0  0  0
   59.5571   80.8043   28.0534 H   0  0  0  0  0  0  0  0  0  0  0  0
   54.7081   75.6799   29.2921 H   0  0  0  0  0  0  0  0  0  0  0  0
  1  2  1  0
  2  3  1  0
  2  4  1  0
  4  5  1  0
  4  6  1  0
  6  7  1  0
  7  8  2  0
  8  9  1  0
  9 10  1  0
 10 11  1  0
 11 12  1  0
 12 13  2  0
 13 14  1  0
 14 15  1  0
 15 16  1  0
 15 17  2  0
 15 18  2  0
 14 19  2  0
 19 20  1  0
  9 21  2  0
 21 22  1  0
 22 23  2  0
 23 24  1  0
 23  7  1  0
 20 11  2  0
  1 25  1  0
  1 26  1  0
  1 27  1  0
  2 28  1  1
  3 29  1  0
  4 30  1  6
  5 31  1  0
  5 32  1  0
  5 33  1  0
  6 34  1  0
 10 35  1  0
 12 36  1  0
 13 37  1  0
 16 38  1  0
 16 39  1  0
 16 40  1  0
 17 41  1  0
 19 42  1  0
 20 43  1  0
 22 44  1  0
M  END
>  <meeko>  (1) 
{"is_sidechain": false}

>  <smiles>  (1) 
C[C@H](O)[C@@H](C)Nc1nc(Nc2ccc(S(C)(=N)=O)cc2)ncc1Br

>  <vina_score>  (1) 
-7.636

>  <job_id>  (1) 
de5ecf190ea137e1

$$$$
