
     RDKit          3D

 36 37  0  0  0  0  0  0  0  0999 V2000
   54.4350   87.3260   25.7160 C   0  0  0  0  0  0  0  0  0  0  0  0
   54.1760   85.9090   25.7700 N   0  0  0  0  0  0  0  0  0  0  0  0
   55.0020   85.0760   26.4980 C   0  0  0  0  0  0  0  0  0  0  0  0
   55.9350   85.4790   27.1840 O   0  0  0  0  0  0  0  0  0  0  0  0
   54.7340   83.6160   26.3810 C   0  0  0  0  0  0  0  0  0  0  0  0
   55.7520   82.7870   25.8970 C   0  0  0  0  0  0  0  0  0  0  0  0
   55.5380   81.4130   25.7680 C   0  0  0  0  0  0  0  0  0  0  0  0
   54.3110   80.8460   26.1340 C   0  0  0  0  0  0  0  0  0  0  0  0
   54.0810   79.3570   25.9810 C   0  0  0  0  0  0  0  0  0  0  0  0
   54.4510   78.5580   27.2160 C   0  0  0  0  0  0  0  0  0  0  0  0
   55.5450   78.9790   27.9950 C   0  0  0  0  0  0  0  0  0  0  0  0
   55.9050   78.2820   29.1450 C   0  0  0  0  0  0  0  0  0  0  0  0
   55.1710   77.1670   29.5200 C   0  0  0  0  0  0  0  0  0  0  0  0
   55.5160   76.4940   30.6260 F   0  0  0  0  0  0  0  0  0  0  0  0
   54.0820   76.7320   28.7700 C   0  0  0  0  0  0  0  0  0  0  0  0
   53.7110   77.4240   27.6140 C   0  0  0  0  0  0  0  0  0  0  0  0
   52.6580   77.0770   26.8090 O   0  0  0  0  0  0  0  0  0  0  0  0
   52.1850   75.7380   26.8850 C   0  0  0  0  0  0  0  0  0  0  0  0
   53.2980   81.6790   26.6320 C   0  0  0  0  0  0  0  0  0  0  0  0
   53.5080   83.0560   26.7600 C   0  0  0  0  0  0  0  0  0  0  0  0
   54.5079   87.7246   26.7386 H   0  0  0  0  0  0  0  0  0  0  0  0
   55.3809   87.5058   25.1841 H   0  0  0  0  0  0  0  0  0  0  0  0
   53.6139   87.8288   25.1841 H   0  0  0  0  0  0  0  0  0  0  0  0
   53.6210   85.5050   25.0290 H   0  0  0  0  0  0  0  0  0  0  0  0
   56.7241   83.2190   25.6172 H   0  0  0  0  0  0  0  0  0  0  0  0
   56.3401   80.7707   25.3755 H   0  0  0  0  0  0  0  0  0  0  0  0
   53.0156   79.1897   25.7642 H   0  0  0  0  0  0  0  0  0  0  0  0
   54.7320   79.0111   25.1646 H   0  0  0  0  0  0  0  0  0  0  0  0
   56.1205   79.8663   27.6926 H   0  0  0  0  0  0  0  0  0  0  0  0
   56.7625   78.6122   29.7497 H   0  0  0  0  0  0  0  0  0  0  0  0
   53.5142   75.8447   29.0868 H   0  0  0  0  0  0  0  0  0  0  0  0
   52.0815   75.4450   27.9402 H   0  0  0  0  0  0  0  0  0  0  0  0
   51.2070   75.6658   26.3868 H   0  0  0  0  0  0  0  0  0  0  0  0
   52.9007   75.0675   26.3868 H   0  0  0  0  0  0  0  0  0  0  0  0
   52.3302   81.2455   26.9244 H   0  0  0  0  0  0  0  0  0  0  0  0
   52.7096   83.6992   27.1586 H   0  0  0  0  0  0  0  0  0  0  0  0
  1  2  1  0
  2  3  1  0
  3  4  2  0
  3  5  1  0
  5  6  1  0
  6  7  2  0
  7  8  1  0
  8  9  1  0
  9 10  1  0
 10 11  1  0
 11 12  2  0
 12 13  1  0
 13 14  1  0
 13 15  2  0
 15 16  1  0
 16 17  1  0
 17 18  1  0
  8 19  2  0
 19 20  1  0
 20  5  2  0
 16 10  2  0
  1 21  1  0
  1 22  1  0
  1 23  1  0
  2 24  1  0
  6 25  1  0
  7 26  1  0
  9 27  1  0
  9 28  1  0
 11 29  1  0
 12 30  1  0
 15 31  1  0
 18 32  1  0
 18 33  1  0
 18 34  1  0
 19 35  1  0
 20 36  1  0
M  END
>  <meeko>  (1) 
{"is_sidechain": false}

>  <smiles>  (1) 
CNC(=O)c1ccc(Cc2ccc(F)cc2OC)cc1

>  <vina_score>  (1) 
-7.924

>  <job_id>  (1) 
dec86a1e8df538df

$$$$
