
     RDKit          3D

 70 73  0  0  0  0  0  0  0  0999 V2000
   52.8120   81.6750   24.0130 C   0  0  0  0  0  0  0  0  0  0  0  0
   53.2230   80.4270   24.7110 C   0  0  0  0  0  0  0  0  0  0  0  0
   52.9990   79.2150   24.2540 N   0  0  0  0  0  0  0  0  0  0  0  0
   53.5030   78.3680   25.1930 C   0  0  0  0  0  0  0  0  0  0  0  0
   54.0490   79.0520   26.2640 C   0  0  0  0  0  0  0  0  0  0  0  0
   54.6560   78.4950   27.4660 C   0  0  0  0  0  0  0  0  0  0  0  0
   55.9530   78.8220   27.6530 N   0  0  0  0  0  0  0  0  0  0  0  0
   56.5560   78.3700   28.7660 C   0  0  0  0  0  0  0  0  0  0  0  0
   57.8910   78.7400   28.8960 N   0  0  0  0  0  0  0  0  0  0  0  0
   58.5540   79.7790   29.5570 C   0  0  0  0  0  0  0  0  0  0  0  0
   58.5510   79.9480   30.9460 C   0  0  0  0  0  0  0  0  0  0  0  0
   59.2570   80.9940   31.5540 C   0  0  0  0  0  0  0  0  0  0  0  0
   60.0030   81.8730   30.7690 C   0  0  0  0  0  0  0  0  0  0  0  0
   60.7440   82.9950   31.3810 C   0  0  0  0  0  0  0  0  0  0  0  0
   60.3150   84.1330   31.2140 O   0  0  0  0  0  0  0  0  0  0  0  0
   61.8990   82.7110   32.0840 N   0  0  0  0  0  0  0  0  0  0  0  0
   62.0030   82.1770   33.4330 C   0  0  0  0  0  0  0  0  0  0  0  0
   63.5010   82.1120   33.7010 C   0  0  0  0  0  0  0  0  0  0  0  0
   64.0850   81.7980   32.3200 C   0  0  2  0  0  0  0  0  0  0  0  0
   65.5020   82.0960   32.1330 N   0  0  0  0  0  0  0  0  0  0  0  0
   66.0110   82.2450   30.7620 C   0  0  2  0  0  0  0  0  0  0  0  0
   66.7840   81.0120   30.2730 C   0  0  0  0  0  0  0  0  0  0  0  0
   66.7990   83.5560   30.4590 C   0  0  2  0  0  0  0  0  0  0  0  0
   66.4460   84.7080   31.3950 C   0  0  0  0  0  0  0  0  0  0  0  0
   66.5330   83.9950   29.1210 O   0  0  0  0  0  0  0  0  0  0  0  0
   63.1820   82.6510   31.4010 C   0  0  0  0  0  0  0  0  0  0  0  0
   60.0110   81.7370   29.3820 C   0  0  0  0  0  0  0  0  0  0  0  0
   59.3000   80.6900   28.7870 C   0  0  0  0  0  0  0  0  0  0  0  0
   55.9340   77.6070   29.6800 N   0  0  0  0  0  0  0  0  0  0  0  0
   54.6360   77.3110   29.4640 C   0  0  0  0  0  0  0  0  0  0  0  0
   53.9400   77.7380   28.3660 C   0  0  0  0  0  0  0  0  0  0  0  0
   52.6510   77.4200   28.1960 F   0  0  0  0  0  0  0  0  0  0  0  0
   53.9010   80.3880   25.9240 N   0  0  0  0  0  0  0  0  0  0  0  0
   54.3910   81.5780   26.6200 C   0  0  0  0  0  0  0  0  0  0  0  0
   53.3070   82.5890   27.0060 C   0  0  0  0  0  0  0  0  0  0  0  0
   55.5690   82.2340   25.9010 C   0  0  0  0  0  0  0  0  0  0  0  0
   52.5585   82.4447   24.7569 H   0  0  0  0  0  0  0  0  0  0  0  0
   53.6399   82.0324   23.3830 H   0  0  0  0  0  0  0  0  0  0  0  0
   51.9337   81.4706   23.3830 H   0  0  0  0  0  0  0  0  0  0  0  0
   53.4789   77.2714   25.1100 H   0  0  0  0  0  0  0  0  0  0  0  0
   58.4490   78.1660   28.2790 H   0  0  0  0  0  0  0  0  0  0  0  0
   57.9828   79.2453   31.5732 H   0  0  0  0  0  0  0  0  0  0  0  0
   59.2232   81.1216   32.6460 H   0  0  0  0  0  0  0  0  0  0  0  0
   61.5072   82.8431   34.1545 H   0  0  0  0  0  0  0  0  0  0  0  0
   61.5163   81.1957   33.5339 H   0  0  0  0  0  0  0  0  0  0  0  0
   63.8769   83.0739   34.0798 H   0  0  0  0  0  0  0  0  0  0  0  0
   63.7727   81.3693   34.4656 H   0  0  0  0  0  0  0  0  0  0  0  0
   64.0795   80.7165   32.1190 H   0  0  0  0  0  0  0  0  0  0  0  0
   66.0800   81.4500   32.6680 H   0  0  0  0  0  0  0  0  0  0  0  0
   65.0849   82.3341   30.1752 H   0  0  0  0  0  0  0  0  0  0  0  0
   67.1441   80.4376   31.1393 H   0  0  0  0  0  0  0  0  0  0  0  0
   66.1199   80.3804   29.6647 H   0  0  0  0  0  0  0  0  0  0  0  0
   67.6419   81.3345   29.6647 H   0  0  0  0  0  0  0  0  0  0  0  0
   67.8595   83.3023   30.6037 H   0  0  0  0  0  0  0  0  0  0  0  0
   66.5476   84.3765   32.4389 H   0  0  0  0  0  0  0  0  0  0  0  0
   67.1267   85.5522   31.2104 H   0  0  0  0  0  0  0  0  0  0  0  0
   65.4092   85.0259   31.2104 H   0  0  0  0  0  0  0  0  0  0  0  0
   66.9280   84.8780   29.0130 H   0  0  0  0  0  0  0  0  0  0  0  0
   63.6010   83.6604   31.2761 H   0  0  0  0  0  0  0  0  0  0  0  0
   63.0936   82.2197   30.3930 H   0  0  0  0  0  0  0  0  0  0  0  0
   60.5730   82.4486   28.7593 H   0  0  0  0  0  0  0  0  0  0  0  0
   59.3246   80.5763   27.6932 H   0  0  0  0  0  0  0  0  0  0  0  0
   54.1102   76.6950   30.2083 H   0  0  0  0  0  0  0  0  0  0  0  0
   54.7670   81.1961   27.5806 H   0  0  0  0  0  0  0  0  0  0  0  0
   53.2386   82.6528   28.1020 H   0  0  0  0  0  0  0  0  0  0  0  0
   53.5645   83.5770   26.5966 H   0  0  0  0  0  0  0  0  0  0  0  0
   52.3394   82.2633   26.5966 H   0  0  0  0  0  0  0  0  0  0  0  0
   56.2780   82.6288   26.6436 H   0  0  0  0  0  0  0  0  0  0  0  0
   56.0755   81.4880   25.2709 H   0  0  0  0  0  0  0  0  0  0  0  0
   55.2015   83.0574   25.2709 H   0  0  0  0  0  0  0  0  0  0  0  0
  1  2  1  0
  2  3  2  0
  3  4  1  0
  4  5  2  0
  5  6  1  0
  6  7  2  0
  7  8  1  0
  8  9  1  0
  9 10  1  0
 10 11  1  0
 11 12  2  0
 12 13  1  0
 13 14  1  0
 14 15  2  0
 14 16  1  0
 16 17  1  0
 17 18  1  0
 18 19  1  0
 19 20  1  0
 20 21  1  0
 21 22  1  0
 21 23  1  0
 23 24  1  0
 23 25  1  0
 19 26  1  0
 13 27  2  0
 27 28  1  0
  8 29  2  0
 29 30  1  0
 30 31  2  0
 31 32  1  0
  5 33  1  0
 33 34  1  0
 34 35  1  0
 34 36  1  0
 33  2  1  0
 31  6  1  0
 28 10  2  0
 26 16  1  0
  1 37  1  0
  1 38  1  0
  1 39  1  0
  4 40  1  0
  9 41  1  0
 11 42  1  0
 12 43  1  0
 17 44  1  0
 17 45  1  0
 18 46  1  0
 18 47  1  0
 19 48  1  6
 20 49  1  0
 21 50  1  6
 22 51  1  0
 22 52  1  0
 22 53  1  0
 23 54  1  6
 24 55  1  0
 24 56  1  0
 24 57  1  0
 25 58  1  0
 26 59  1  0
 26 60  1  0
 27 61  1  0
 28 62  1  0
 30 63  1  0
 34 64  1  0
 35 65  1  0
 35 66  1  0
 35 67  1  0
 36 68  1  0
 36 69  1  0
 36 70  1  0
M  END
>  <meeko>  (1) 
{"is_sidechain": false}

>  <smiles>  (1) 
Cc1ncc(-c2nc(Nc3ccc(C(=O)N4CC[C@H](N[C@H](C)[C@H](C)O)C4)cc3)ncc2F)n1C(C)C

>  <vina_score>  (1) 
-9.289

>  <job_id>  (1) 
dede6475af3df74f

$$$$
