
     RDKit          3D

 41 42  0  0  0  0  0  0  0  0999 V2000
   51.8090   74.9820   25.7670 C   0  0  0  0  0  0  0  0  0  0  0  0
   52.0670   76.0070   26.8630 C   0  0  0  0  0  0  0  0  0  0  0  0
   52.9380   75.4690   28.0010 C   0  0  0  0  0  0  0  0  0  0  0  0
   53.9810   76.4460   28.4840 C   0  0  0  0  0  0  0  0  0  0  0  0
   54.9140   76.0750   29.4570 C   0  0  0  0  0  0  0  0  0  0  0  0
   55.8800   76.9850   29.8950 C   0  0  0  0  0  0  0  0  0  0  0  0
   55.9330   78.2830   29.3720 C   0  0  0  0  0  0  0  0  0  0  0  0
   56.9440   79.1360   29.8630 N   0  0  0  0  0  0  0  0  0  0  0  0
   58.0670   79.5780   29.1900 C   0  0  0  0  0  0  0  0  0  0  0  0
   58.3650   79.3670   28.0220 O   0  0  0  0  0  0  0  0  0  0  0  0
   58.9800   80.4340   29.9990 C   0  0  0  0  0  0  0  0  0  0  0  0
   58.9360   80.3230   31.3960 C   0  0  0  0  0  0  0  0  0  0  0  0
   59.7710   81.1110   32.1900 C   0  0  0  0  0  0  0  0  0  0  0  0
   60.6310   82.0290   31.5790 C   0  0  0  0  0  0  0  0  0  0  0  0
   61.7030   83.0250   32.5920 S   0  0  0  0  0  0  0  0  0  0  0  0
   60.8460   83.1010   34.1430 C   0  0  0  0  0  0  0  0  0  0  0  0
   62.9320   82.2790   32.7830 O   0  0  0  0  0  0  0  0  0  0  0  0
   61.7230   84.3580   32.0210 O   0  0  0  0  0  0  0  0  0  0  0  0
   60.6820   82.1500   30.1870 C   0  0  0  0  0  0  0  0  0  0  0  0
   59.8470   81.3570   29.3960 C   0  0  0  0  0  0  0  0  0  0  0  0
   55.0060   78.6530   28.3990 C   0  0  0  0  0  0  0  0  0  0  0  0
   54.0370   77.7430   27.9590 C   0  0  0  0  0  0  0  0  0  0  0  0
   51.5646   74.0112   26.2230 H   0  0  0  0  0  0  0  0  0  0  0  0
   50.9670   75.3164   25.1431 H   0  0  0  0  0  0  0  0  0  0  0  0
   52.7090   74.8779   25.1431 H   0  0  0  0  0  0  0  0  0  0  0  0
   52.5729   76.8758   26.4167 H   0  0  0  0  0  0  0  0  0  0  0  0
   51.0918   76.2734   27.2966 H   0  0  0  0  0  0  0  0  0  0  0  0
   52.2836   75.2137   28.8475 H   0  0  0  0  0  0  0  0  0  0  0  0
   53.4765   74.5948   27.6063 H   0  0  0  0  0  0  0  0  0  0  0  0
   54.8875   75.0602   29.8805 H   0  0  0  0  0  0  0  0  0  0  0  0
   56.6080   76.6778   30.6603 H   0  0  0  0  0  0  0  0  0  0  0  0
   56.7830   79.5130   30.7880 H   0  0  0  0  0  0  0  0  0  0  0  0
   58.2412   79.6126   31.8679 H   0  0  0  0  0  0  0  0  0  0  0  0
   59.7527   81.0109   33.2853 H   0  0  0  0  0  0  0  0  0  0  0  0
   61.5722   83.0366   34.9667 H   0  0  0  0  0  0  0  0  0  0  0  0
   60.2965   84.0514   34.2121 H   0  0  0  0  0  0  0  0  0  0  0  0
   60.1378   82.2621   34.2121 H   0  0  0  0  0  0  0  0  0  0  0  0
   61.3746   82.8644   29.7181 H   0  0  0  0  0  0  0  0  0  0  0  0
   59.8695   81.4565   28.3007 H   0  0  0  0  0  0  0  0  0  0  0  0
   55.0359   79.6671   27.9738 H   0  0  0  0  0  0  0  0  0  0  0  0
   53.3111   78.0506   27.1918 H   0  0  0  0  0  0  0  0  0  0  0  0
  1  2  1  0
  2  3  1  0
  3  4  1  0
  4  5  1  0
  5  6  2  0
  6  7  1  0
  7  8  1  0
  8  9  1  0
  9 10  2  0
  9 11  1  0
 11 12  1  0
 12 13  2  0
 13 14  1  0
 14 15  1  0
 15 16  1  0
 15 17  2  0
 15 18  2  0
 14 19  2  0
 19 20  1  0
  7 21  2  0
 21 22  1  0
 22  4  2  0
 20 11  2  0
  1 23  1  0
  1 24  1  0
  1 25  1  0
  2 26  1  0
  2 27  1  0
  3 28  1  0
  3 29  1  0
  5 30  1  0
  6 31  1  0
  8 32  1  0
 12 33  1  0
 13 34  1  0
 16 35  1  0
 16 36  1  0
 16 37  1  0
 19 38  1  0
 20 39  1  0
 21 40  1  0
 22 41  1  0
M  END
>  <meeko>  (1) 
{"is_sidechain": false}

>  <smiles>  (1) 
CCCc1ccc(NC(=O)c2ccc(S(C)(=O)=O)cc2)cc1

>  <vina_score>  (1) 
-7.881

>  <job_id>  (1) 
df4ca1211579ba92

$$$$
