
     RDKit          3D

 46 48  0  0  0  0  0  0  0  0999 V2000
   50.8670   81.0110   23.1090 C   0  0  0  0  0  0  0  0  0  0  0  0
   51.7770   80.5890   24.1690 N   0  0  0  0  0  0  0  0  0  0  0  0
   52.1850   81.7320   25.0000 C   0  0  0  0  0  0  0  0  0  0  0  0
   53.5140   81.5170   25.7390 C   0  0  0  0  0  0  0  0  0  0  0  0
   53.7240   80.0340   26.0690 C   0  0  0  0  0  0  0  0  0  0  0  0
   54.9760   79.7830   26.8910 C   0  0  0  0  0  0  0  0  0  0  0  0
   54.9980   78.7310   27.8220 C   0  0  0  0  0  0  0  0  0  0  0  0
   56.1390   78.4780   28.5870 C   0  0  0  0  0  0  0  0  0  0  0  0
   57.2780   79.2660   28.4160 C   0  0  0  0  0  0  0  0  0  0  0  0
   58.4220   79.0900   29.1610 O   0  0  0  0  0  0  0  0  0  0  0  0
   58.8240   80.1370   29.9600 C   0  0  0  0  0  0  0  0  0  0  0  0
   58.2280   80.2320   31.2190 C   0  0  0  0  0  0  0  0  0  0  0  0
   58.5620   81.2870   32.0700 C   0  0  0  0  0  0  0  0  0  0  0  0
   59.4760   82.2540   31.6420 C   0  0  0  0  0  0  0  0  0  0  0  0
   59.9250   83.5750   32.7290 S   0  0  0  0  0  0  0  0  0  0  0  0
   59.6850   82.8800   34.2380 N   0  0  0  0  0  0  0  0  0  0  0  0
   58.9500   84.6350   32.6200 O   0  0  0  0  0  0  0  0  0  0  0  0
   61.3460   83.8160   32.6240 O   0  0  0  0  0  0  0  0  0  0  0  0
   60.0680   82.1680   30.3780 C   0  0  0  0  0  0  0  0  0  0  0  0
   59.7310   81.1110   29.5300 C   0  0  0  0  0  0  0  0  0  0  0  0
   57.2660   80.3260   27.5120 C   0  0  0  0  0  0  0  0  0  0  0  0
   56.1240   80.5770   26.7470 C   0  0  0  0  0  0  0  0  0  0  0  0
   53.6990   79.1850   24.7820 C   0  0  0  0  0  0  0  0  0  0  0  0
   52.9250   79.8570   23.6410 C   0  0  0  0  0  0  0  0  0  0  0  0
   49.9550   81.4339   23.5555 H   0  0  0  0  0  0  0  0  0  0  0  0
   51.3579   81.7734   22.4863 H   0  0  0  0  0  0  0  0  0  0  0  0
   50.6022   80.1438   22.4863 H   0  0  0  0  0  0  0  0  0  0  0  0
   52.2878   82.6139   24.3506 H   0  0  0  0  0  0  0  0  0  0  0  0
   51.4086   81.8634   25.7681 H   0  0  0  0  0  0  0  0  0  0  0  0
   54.3405   81.8646   25.1018 H   0  0  0  0  0  0  0  0  0  0  0  0
   53.4884   82.0859   26.6801 H   0  0  0  0  0  0  0  0  0  0  0  0
   52.8837   79.7197   26.7055 H   0  0  0  0  0  0  0  0  0  0  0  0
   54.1065   78.0994   27.9499 H   0  0  0  0  0  0  0  0  0  0  0  0
   56.1397   77.6598   29.3223 H   0  0  0  0  0  0  0  0  0  0  0  0
   57.4960   79.4763   31.5400 H   0  0  0  0  0  0  0  0  0  0  0  0
   58.1092   81.3568   33.0701 H   0  0  0  0  0  0  0  0  0  0  0  0
   59.0750   82.0680   34.1520 H   0  0  0  0  0  0  0  0  0  0  0  0
   60.5860   82.6750   34.6720 H   0  0  0  0  0  0  0  0  0  0  0  0
   60.7943   82.9279   30.0539 H   0  0  0  0  0  0  0  0  0  0  0  0
   60.1775   81.0446   28.5269 H   0  0  0  0  0  0  0  0  0  0  0  0
   58.1546   80.9647   27.4006 H   0  0  0  0  0  0  0  0  0  0  0  0
   56.1249   81.4060   26.0240 H   0  0  0  0  0  0  0  0  0  0  0  0
   54.7348   79.0162   24.4523 H   0  0  0  0  0  0  0  0  0  0  0  0
   53.1867   78.2407   25.0183 H   0  0  0  0  0  0  0  0  0  0  0  0
   53.5904   80.5568   23.1141 H   0  0  0  0  0  0  0  0  0  0  0  0
   52.5668   79.0824   22.9470 H   0  0  0  0  0  0  0  0  0  0  0  0
  1  2  1  0
  2  3  1  0
  3  4  1  0
  4  5  1  0
  5  6  1  0
  6  7  1  0
  7  8  2  0
  8  9  1  0
  9 10  1  0
 10 11  1  0
 11 12  1  0
 12 13  2  0
 13 14  1  0
 14 15  1  0
 15 16  1  0
 15 17  2  0
 15 18  2  0
 14 19  2  0
 19 20  1  0
  9 21  2  0
 21 22  1  0
  5 23  1  0
 23 24  1  0
 24  2  1  0
 22  6  2  0
 20 11  2  0
  1 25  1  0
  1 26  1  0
  1 27  1  0
  3 28  1  0
  3 29  1  0
  4 30  1  0
  4 31  1  0
  5 32  1  0
  7 33  1  0
  8 34  1  0
 12 35  1  0
 13 36  1  0
 16 37  1  0
 16 38  1  0
 19 39  1  0
 20 40  1  0
 21 41  1  0
 22 42  1  0
 23 43  1  0
 23 44  1  0
 24 45  1  0
 24 46  1  0
M  END
>  <meeko>  (1) 
{"is_sidechain": false}

>  <smiles>  (1) 
CN1CCC(c2ccc(Oc3ccc(S(N)(=O)=O)cc3)cc2)CC1

>  <vina_score>  (1) 
-8.392

>  <job_id>  (1) 
df848ba01a2d55b2

$$$$
