
     RDKit          3D

 48 50  0  0  0  0  0  0  0  0999 V2000
   52.0980   82.8870   26.5200 C   0  0  0  0  0  0  0  0  0  0  0  0
   53.2480   82.9730   27.3520 O   0  0  0  0  0  0  0  0  0  0  0  0
   54.4170   83.0310   26.6660 C   0  0  0  0  0  0  0  0  0  0  0  0
   54.9710   84.0750   25.8850 C   0  0  0  0  0  0  0  0  0  0  0  0
   56.1770   83.6200   25.4070 C   0  0  0  0  0  0  0  0  0  0  0  0
   56.3650   82.3440   25.8780 N   0  0  0  0  0  0  0  0  0  0  0  0
   55.3000   81.9600   26.6560 C   0  0  0  0  0  0  0  0  0  0  0  0
   55.2120   80.6910   27.2930 C   0  0  0  0  0  0  0  0  0  0  0  0
   54.4520   79.6180   27.0170 C   0  0  0  0  0  0  0  0  0  0  0  0
   53.4050   79.4500   25.9410 C   0  0  0  0  0  0  0  0  0  0  0  0
   53.0830   80.2290   25.0640 O   0  0  0  0  0  0  0  0  0  0  0  0
   52.8610   78.1980   26.1480 N   0  0  0  0  0  0  0  0  0  0  0  0
   53.4690   77.5450   27.2090 C   0  0  0  0  0  0  0  0  0  0  0  0
   53.1590   76.2690   27.6450 C   0  0  0  0  0  0  0  0  0  0  0  0
   53.8980   75.7620   28.7090 C   0  0  0  0  0  0  0  0  0  0  0  0
   54.9180   76.5300   29.2890 C   0  0  0  0  0  0  0  0  0  0  0  0
   55.6130   75.9850   30.2990 F   0  0  0  0  0  0  0  0  0  0  0  0
   55.2250   77.8240   28.8370 C   0  0  0  0  0  0  0  0  0  0  0  0
   56.3060   78.5320   29.4480 C   0  0  0  0  0  0  0  0  0  0  0  0
   57.2230   79.1450   29.9290 C   0  0  0  0  0  0  0  0  0  0  0  0
   58.3260   79.9470   30.4890 C   0  0  1  0  0  0  0  0  0  0  0  0
   59.0530   79.1070   31.3820 O   0  0  0  0  0  0  0  0  0  0  0  0
   59.2400   80.5300   29.3560 C   0  0  1  0  0  0  0  0  0  0  0  0
   58.6070   80.6070   28.0200 N   0  0  0  0  0  0  0  0  0  0  0  0
   59.8540   81.9110   29.7360 C   0  0  1  0  0  0  0  0  0  0  0  0
   59.0710   82.6860   30.7900 C   0  0  0  0  0  0  0  0  0  0  0  0
   61.1920   81.7320   30.2210 O   0  0  0  0  0  0  0  0  0  0  0  0
   54.4720   78.3430   27.7850 C   0  0  0  0  0  0  0  0  0  0  0  0
   51.1964   82.8196   27.1465 H   0  0  0  0  0  0  0  0  0  0  0  0
   52.0370   83.7831   25.8849 H   0  0  0  0  0  0  0  0  0  0  0  0
   52.1710   81.9918   25.8849 H   0  0  0  0  0  0  0  0  0  0  0  0
   54.5219   85.0614   25.6969 H   0  0  0  0  0  0  0  0  0  0  0  0
   56.8694   84.1796   24.7610 H   0  0  0  0  0  0  0  0  0  0  0  0
   57.1770   81.7710   25.6670 H   0  0  0  0  0  0  0  0  0  0  0  0
   55.8796   80.5673   28.1585 H   0  0  0  0  0  0  0  0  0  0  0  0
   52.1280   77.8250   25.5640 H   0  0  0  0  0  0  0  0  0  0  0  0
   52.3610   75.6796   27.1698 H   0  0  0  0  0  0  0  0  0  0  0  0
   53.6816   74.7556   29.0966 H   0  0  0  0  0  0  0  0  0  0  0  0
   57.9318   80.8179   31.0332 H   0  0  0  0  0  0  0  0  0  0  0  0
   59.3850   79.6900   32.0990 H   0  0  0  0  0  0  0  0  0  0  0  0
   60.0477   79.7879   29.2723 H   0  0  0  0  0  0  0  0  0  0  0  0
   59.2020   81.1390   27.3780 H   0  0  0  0  0  0  0  0  0  0  0  0
   57.7560   81.1690   28.0930 H   0  0  0  0  0  0  0  0  0  0  0  0
   59.8242   82.5037   28.8098 H   0  0  0  0  0  0  0  0  0  0  0  0
   59.3922   82.3680   31.7928 H   0  0  0  0  0  0  0  0  0  0  0  0
   59.2597   83.7629   30.6688 H   0  0  0  0  0  0  0  0  0  0  0  0
   57.9961   82.4862   30.6688 H   0  0  0  0  0  0  0  0  0  0  0  0
   61.1370   81.7050   31.1950 H   0  0  0  0  0  0  0  0  0  0  0  0
  1  2  1  0
  2  3  1  0
  3  4  1  0
  4  5  2  0
  5  6  1  0
  6  7  1  0
  7  8  1  0
  8  9  2  3
  9 10  1  0
 10 11  2  0
 10 12  1  0
 12 13  1  0
 13 14  1  0
 14 15  2  0
 15 16  1  0
 16 17  1  0
 16 18  2  0
 18 19  1  0
 19 20  3  0
 20 21  1  0
 21 22  1  0
 21 23  1  0
 23 24  1  0
 23 25  1  0
 25 26  1  0
 25 27  1  0
 18 28  1  0
  7  3  2  0
 28  9  1  0
 28 13  2  0
  1 29  1  0
  1 30  1  0
  1 31  1  0
  4 32  1  0
  5 33  1  0
  6 34  1  0
  8 35  1  0
 12 36  1  0
 14 37  1  0
 15 38  1  0
 21 39  1  1
 22 40  1  0
 23 41  1  6
 24 42  1  0
 24 43  1  0
 25 44  1  6
 26 45  1  0
 26 46  1  0
 26 47  1  0
 27 48  1  0
M  END
>  <meeko>  (1) 
{"is_sidechain": false}

>  <smiles>  (1) 
COc1cc[nH]c1C=C1C(=O)Nc2ccc(F)c(C#C[C@@H](O)[C@@H](N)[C@@H](C)O)c21

>  <vina_score>  (1) 
-7.481

>  <job_id>  (1) 
df8d000e6c25ec41

$$$$
