
     RDKit          3D

 65 68  0  0  0  0  0  0  0  0999 V2000
   63.8070   80.5910   38.2920 C   0  0  0  0  0  0  0  0  0  0  0  0
   63.0500   79.3240   37.9990 C   0  0  0  0  0  0  0  0  0  0  0  0
   63.1660   78.2670   39.0640 C   0  0  0  0  0  0  0  0  0  0  0  0
   62.3080   79.1040   36.8950 C   0  0  0  0  0  0  0  0  0  0  0  0
   62.1330   80.0510   35.7930 C   0  0  0  0  0  0  0  0  0  0  0  0
   61.0620   80.9460   35.8060 C   0  0  0  0  0  0  0  0  0  0  0  0
   60.8860   81.8490   34.7520 C   0  0  0  0  0  0  0  0  0  0  0  0
   61.7890   81.8890   33.6820 C   0  0  0  0  0  0  0  0  0  0  0  0
   61.5580   82.7750   32.6060 N   0  0  0  0  0  0  0  0  0  0  0  0
   60.3100   82.9600   32.0740 N   0  0  0  0  0  0  0  0  0  0  0  0
   59.6820   81.9770   31.2820 C   0  0  0  0  0  0  0  0  0  0  0  0
   60.0370   81.8360   29.9370 C   0  0  0  0  0  0  0  0  0  0  0  0
   59.4660   80.8350   29.1390 C   0  0  0  0  0  0  0  0  0  0  0  0
   58.5430   79.9270   29.6630 C   0  0  0  0  0  0  0  0  0  0  0  0
   57.9320   78.9120   28.9200 N   0  0  0  0  0  0  0  0  0  0  0  0
   56.6270   78.4530   28.7950 C   0  0  0  0  0  0  0  0  0  0  0  0
   56.0800   77.6030   29.6820 N   0  0  0  0  0  0  0  0  0  0  0  0
   54.8030   77.2180   29.4730 C   0  0  0  0  0  0  0  0  0  0  0  0
   54.0570   77.6420   28.4070 C   0  0  0  0  0  0  0  0  0  0  0  0
   52.7960   77.2270   28.2300 F   0  0  0  0  0  0  0  0  0  0  0  0
   54.6950   78.4990   27.5410 C   0  0  0  0  0  0  0  0  0  0  0  0
   54.0430   79.0680   26.3710 C   0  0  0  0  0  0  0  0  0  0  0  0
   53.3310   78.4140   25.3880 C   0  0  0  0  0  0  0  0  0  0  0  0
   52.9040   79.2780   24.4240 N   0  0  0  0  0  0  0  0  0  0  0  0
   53.3070   80.4740   24.8020 C   0  0  0  0  0  0  0  0  0  0  0  0
   53.0740   81.7030   24.0000 C   0  0  0  0  0  0  0  0  0  0  0  0
   53.9720   80.4090   26.0160 N   0  0  0  0  0  0  0  0  0  0  0  0
   54.4450   81.5260   26.8350 C   0  0  0  0  0  0  0  0  0  0  0  0
   55.6180   82.2890   26.2220 C   0  0  0  0  0  0  0  0  0  0  0  0
   53.3060   82.4560   27.2590 C   0  0  0  0  0  0  0  0  0  0  0  0
   55.9660   78.9170   27.7210 N   0  0  0  0  0  0  0  0  0  0  0  0
   58.2160   80.0530   31.0210 C   0  0  0  0  0  0  0  0  0  0  0  0
   58.7850   81.0540   31.8200 C   0  0  0  0  0  0  0  0  0  0  0  0
   62.8390   80.9630   33.6620 C   0  0  0  0  0  0  0  0  0  0  0  0
   63.0180   80.0580   34.7120 C   0  0  0  0  0  0  0  0  0  0  0  0
   63.8879   80.7264   39.3806 H   0  0  0  0  0  0  0  0  0  0  0  0
   64.8143   80.5258   37.8548 H   0  0  0  0  0  0  0  0  0  0  0  0
   63.2722   81.4471   37.8548 H   0  0  0  0  0  0  0  0  0  0  0  0
   63.1142   78.7390   40.0562 H   0  0  0  0  0  0  0  0  0  0  0  0
   62.3415   77.5467   38.9571 H   0  0  0  0  0  0  0  0  0  0  0  0
   64.1271   77.7427   38.9571 H   0  0  0  0  0  0  0  0  0  0  0  0
   61.7930   78.1352   36.8163 H   0  0  0  0  0  0  0  0  0  0  0  0
   60.3539   80.9413   36.6478 H   0  0  0  0  0  0  0  0  0  0  0  0
   60.0274   82.5365   34.7637 H   0  0  0  0  0  0  0  0  0  0  0  0
   62.3190   82.7700   31.9250 H   0  0  0  0  0  0  0  0  0  0  0  0
   59.6540   83.4580   32.6770 H   0  0  0  0  0  0  0  0  0  0  0  0
   60.7765   82.5218   29.4979 H   0  0  0  0  0  0  0  0  0  0  0  0
   59.7505   80.7631   28.0789 H   0  0  0  0  0  0  0  0  0  0  0  0
   58.5280   78.3820   28.3000 H   0  0  0  0  0  0  0  0  0  0  0  0
   54.3394   76.5297   30.1950 H   0  0  0  0  0  0  0  0  0  0  0  0
   53.1327   77.3320   25.3824 H   0  0  0  0  0  0  0  0  0  0  0  0
   52.9122   82.5562   24.6752 H   0  0  0  0  0  0  0  0  0  0  0  0
   53.9511   81.8986   23.3656 H   0  0  0  0  0  0  0  0  0  0  0  0
   52.1862   81.5640   23.3656 H   0  0  0  0  0  0  0  0  0  0  0  0
   54.8460   81.0657   27.7501 H   0  0  0  0  0  0  0  0  0  0  0  0
   56.2484   82.6990   27.0248 H   0  0  0  0  0  0  0  0  0  0  0  0
   56.2148   81.6058   25.5999 H   0  0  0  0  0  0  0  0  0  0  0  0
   55.2354   83.1116   25.5999 H   0  0  0  0  0  0  0  0  0  0  0  0
   53.2557   82.4971   28.3571 H   0  0  0  0  0  0  0  0  0  0  0  0
   53.4899   83.4654   26.8623 H   0  0  0  0  0  0  0  0  0  0  0  0
   52.3538   82.0740   26.8623 H   0  0  0  0  0  0  0  0  0  0  0  0
   57.4973   79.3509   31.4687 H   0  0  0  0  0  0  0  0  0  0  0  0
   58.5206   81.1127   32.8861 H   0  0  0  0  0  0  0  0  0  0  0  0
   63.5325   80.9475   32.8083 H   0  0  0  0  0  0  0  0  0  0  0  0
   63.8585   79.3489   34.6871 H   0  0  0  0  0  0  0  0  0  0  0  0
  1  2  1  0
  2  3  1  0
  2  4  2  3
  4  5  1  0
  5  6  1  0
  6  7  2  0
  7  8  1  0
  8  9  1  0
  9 10  1  0
 10 11  1  0
 11 12  1  0
 12 13  2  0
 13 14  1  0
 14 15  1  0
 15 16  1  0
 16 17  2  0
 17 18  1  0
 18 19  2  0
 19 20  1  0
 19 21  1  0
 21 22  1  0
 22 23  2  0
 23 24  1  0
 24 25  2  0
 25 26  1  0
 25 27  1  0
 27 28  1  0
 28 29  1  0
 28 30  1  0
 21 31  2  0
 14 32  2  0
 32 33  1  0
  8 34  2  0
 34 35  1  0
 35  5  2  0
 33 11  2  0
 31 16  1  0
 27 22  1  0
  1 36  1  0
  1 37  1  0
  1 38  1  0
  3 39  1  0
  3 40  1  0
  3 41  1  0
  4 42  1  0
  6 43  1  0
  7 44  1  0
  9 45  1  0
 10 46  1  0
 12 47  1  0
 13 48  1  0
 15 49  1  0
 18 50  1  0
 23 51  1  0
 26 52  1  0
 26 53  1  0
 26 54  1  0
 28 55  1  0
 29 56  1  0
 29 57  1  0
 29 58  1  0
 30 59  1  0
 30 60  1  0
 30 61  1  0
 32 62  1  0
 33 63  1  0
 34 64  1  0
 35 65  1  0
M  END
>  <meeko>  (1) 
{"is_sidechain": false}

>  <smiles>  (1) 
CC(C)=Cc1ccc(NNc2ccc(Nc3ncc(F)c(-c4cnc(C)n4C(C)C)n3)cc2)cc1

>  <vina_score>  (1) 
-9.126

>  <job_id>  (1) 
df9ed233a5585d08

$$$$
