
     RDKit          3D

 45 47  0  0  0  0  0  0  0  0999 V2000
   63.7260   84.2500   32.9500 C   0  0  0  0  0  0  0  0  0  0  0  0
   62.3820   84.9690   33.0110 C   0  0  0  0  0  0  0  0  0  0  0  0
   61.2380   84.0630   32.8490 N   0  0  0  0  0  0  0  0  0  0  0  0
   60.6810   84.1310   31.4750 C   0  0  0  0  0  0  0  0  0  0  0  0
   61.0900   82.9630   30.5520 C   0  0  0  0  0  0  0  0  0  0  0  0
   60.6660   81.6610   31.1070 N   0  0  0  0  0  0  0  0  0  0  0  0
   59.5980   80.9710   30.5200 C   0  0  0  0  0  0  0  0  0  0  0  0
   58.7140   80.2540   31.3380 C   0  0  0  0  0  0  0  0  0  0  0  0
   57.6230   79.5480   30.8110 C   0  0  0  0  0  0  0  0  0  0  0  0
   57.3600   79.5350   29.4330 C   0  0  0  0  0  0  0  0  0  0  0  0
   56.2130   78.8060   28.8500 C   0  0  0  0  0  0  0  0  0  0  0  0
   55.7090   77.6210   29.3900 C   0  0  0  0  0  0  0  0  0  0  0  0
   54.6200   76.9940   28.7810 C   0  0  0  0  0  0  0  0  0  0  0  0
   54.0440   77.5630   27.6470 C   0  0  0  0  0  0  0  0  0  0  0  0
   52.8920   76.8980   26.9990 C   0  0  0  0  0  0  0  0  0  0  0  0
   52.2290   75.9300   27.7010 N   0  0  0  0  0  0  0  0  0  0  0  0
   52.5590   77.1770   25.8540 O   0  0  0  0  0  0  0  0  0  0  0  0
   54.6060   78.7310   27.1630 C   0  0  0  0  0  0  0  0  0  0  0  0
   55.6570   79.3660   27.7420 N   0  0  0  0  0  0  0  0  0  0  0  0
   58.2500   80.2480   28.6150 C   0  0  0  0  0  0  0  0  0  0  0  0
   59.3430   80.9510   29.1460 C   0  0  0  0  0  0  0  0  0  0  0  0
   60.6340   81.6090   32.5890 C   0  0  0  0  0  0  0  0  0  0  0  0
   61.5780   82.6650   33.2110 C   0  0  0  0  0  0  0  0  0  0  0  0
   64.0856   84.0576   33.9716 H   0  0  0  0  0  0  0  0  0  0  0  0
   63.6071   83.2950   32.4172 H   0  0  0  0  0  0  0  0  0  0  0  0
   64.4544   84.8789   32.4172 H   0  0  0  0  0  0  0  0  0  0  0  0
   62.2967   85.4702   33.9865 H   0  0  0  0  0  0  0  0  0  0  0  0
   62.3544   85.6856   32.1769 H   0  0  0  0  0  0  0  0  0  0  0  0
   59.5836   84.1392   31.5506 H   0  0  0  0  0  0  0  0  0  0  0  0
   61.0916   85.0441   31.0193 H   0  0  0  0  0  0  0  0  0  0  0  0
   60.6185   83.1029   29.5681 H   0  0  0  0  0  0  0  0  0  0  0  0
   62.1864   82.9602   30.4637 H   0  0  0  0  0  0  0  0  0  0  0  0
   58.8810   80.2448   32.4252 H   0  0  0  0  0  0  0  0  0  0  0  0
   56.9603   78.9934   31.4916 H   0  0  0  0  0  0  0  0  0  0  0  0
   56.1670   77.1841   30.2896 H   0  0  0  0  0  0  0  0  0  0  0  0
   54.2193   76.0565   29.1940 H   0  0  0  0  0  0  0  0  0  0  0  0
   52.6230   75.4670   28.5080 H   0  0  0  0  0  0  0  0  0  0  0  0
   51.5260   75.4180   27.1810 H   0  0  0  0  0  0  0  0  0  0  0  0
   54.1745   79.1725   26.2526 H   0  0  0  0  0  0  0  0  0  0  0  0
   58.0866   80.2562   27.5272 H   0  0  0  0  0  0  0  0  0  0  0  0
   60.0130   81.4977   28.4662 H   0  0  0  0  0  0  0  0  0  0  0  0
   59.6066   81.8011   32.9318 H   0  0  0  0  0  0  0  0  0  0  0  0
   60.9717   80.6119   32.9079 H   0  0  0  0  0  0  0  0  0  0  0  0
   61.5309   82.5695   34.3058 H   0  0  0  0  0  0  0  0  0  0  0  0
   62.5842   82.4678   32.8127 H   0  0  0  0  0  0  0  0  0  0  0  0
  1  2  1  0
  2  3  1  0
  3  4  1  0
  4  5  1  0
  5  6  1  0
  6  7  1  0
  7  8  1  0
  8  9  2  0
  9 10  1  0
 10 11  1  0
 11 12  2  0
 12 13  1  0
 13 14  2  0
 14 15  1  0
 15 16  1  0
 15 17  2  0
 14 18  1  0
 18 19  2  0
 10 20  2  0
 20 21  1  0
  6 22  1  0
 22 23  1  0
 23  3  1  0
 21  7  2  0
 19 11  1  0
  1 24  1  0
  1 25  1  0
  1 26  1  0
  2 27  1  0
  2 28  1  0
  4 29  1  0
  4 30  1  0
  5 31  1  0
  5 32  1  0
  8 33  1  0
  9 34  1  0
 12 35  1  0
 13 36  1  0
 16 37  1  0
 16 38  1  0
 18 39  1  0
 20 40  1  0
 21 41  1  0
 22 42  1  0
 22 43  1  0
 23 44  1  0
 23 45  1  0
M  END
>  <meeko>  (1) 
{"is_sidechain": false}

>  <smiles>  (1) 
CCN1CCN(c2ccc(-c3ccc(C(N)=O)cn3)cc2)CC1

>  <vina_score>  (1) 
-7.066

>  <job_id>  (1) 
e02e73f1273b9594

$$$$
