
     RDKit          3D

 66 71  0  0  0  0  0  0  0  0999 V2000
   50.7790   80.9820   24.1030 C   0  0  0  0  0  0  0  0  0  0  0  0
   52.1420   81.5110   24.0540 N   0  0  0  0  0  0  0  0  0  0  0  0
   53.0860   80.5600   23.4560 C   0  0  0  0  0  0  0  0  0  0  0  0
   53.4560   79.3940   24.3690 C   0  0  0  0  0  0  0  0  0  0  0  0
   53.9810   79.8990   25.7140 C   0  0  0  0  0  0  0  0  0  0  0  0
   54.1470   78.8100   26.6280 O   0  0  0  0  0  0  0  0  0  0  0  0
   55.1420   78.8660   27.5560 C   0  0  0  0  0  0  0  0  0  0  0  0
   55.2150   78.1730   28.7530 C   0  0  0  0  0  0  0  0  0  0  0  0
   56.3210   78.3570   29.5940 C   0  0  0  0  0  0  0  0  0  0  0  0
   57.3370   79.2330   29.2300 C   0  0  0  0  0  0  0  0  0  0  0  0
   58.4640   79.4820   29.9900 N   0  0  0  0  0  0  0  0  0  0  0  0
   58.7920   80.3810   30.9850 C   0  0  0  0  0  0  0  0  0  0  0  0
   57.9790   80.6070   32.0290 N   0  0  0  0  0  0  0  0  0  0  0  0
   58.3900   81.5040   32.9480 C   0  0  0  0  0  0  0  0  0  0  0  0
   59.5800   82.1790   32.8700 C   0  0  0  0  0  0  0  0  0  0  0  0
   59.9160   83.0670   33.8140 F   0  0  0  0  0  0  0  0  0  0  0  0
   60.3720   81.8990   31.7750 C   0  0  0  0  0  0  0  0  0  0  0  0
   61.6870   82.5340   31.5270 C   0  0  0  0  0  0  0  0  0  0  0  0
   62.8160   81.7340   31.2640 C   0  0  0  0  0  0  0  0  0  0  0  0
   64.0780   82.2890   31.0190 C   0  0  0  0  0  0  0  0  0  0  0  0
   65.1090   81.4710   30.7620 F   0  0  0  0  0  0  0  0  0  0  0  0
   64.2430   83.6810   31.0400 C   0  0  0  0  0  0  0  0  0  0  0  0
   65.3720   84.4590   30.8140 N   0  0  0  0  0  0  0  0  0  0  0  0
   64.9460   85.6840   30.9560 C   0  0  0  0  0  0  0  0  0  0  0  0
   63.6220   85.7320   31.2780 N   0  0  0  0  0  0  0  0  0  0  0  0
   63.1220   84.4760   31.3200 C   0  0  0  0  0  0  0  0  0  0  0  0
   61.8500   83.9380   31.5610 C   0  0  0  0  0  0  0  0  0  0  0  0
   63.1150   87.0950   31.4320 C   0  0  0  0  0  0  0  0  0  0  0  0
   62.3130   87.5120   30.1930 C   0  0  0  0  0  0  0  0  0  0  0  0
   62.2880   87.2850   32.7050 C   0  0  0  0  0  0  0  0  0  0  0  0
   64.4530   87.8980   31.5280 C   0  0  0  0  0  0  0  0  0  0  0  0
   65.5300   87.0310   30.8340 C   0  0  0  0  0  0  0  0  0  0  0  0
   59.9740   81.0050   30.8330 N   0  0  0  0  0  0  0  0  0  0  0  0
   57.2750   79.9160   28.0670 N   0  0  0  0  0  0  0  0  0  0  0  0
   56.1950   79.7210   27.2690 C   0  0  0  0  0  0  0  0  0  0  0  0
   52.9580   80.8540   26.3360 C   0  0  0  0  0  0  0  0  0  0  0  0
   52.6020   81.9790   25.3670 C   0  0  0  0  0  0  0  0  0  0  0  0
   50.4698   80.8620   25.1518 H   0  0  0  0  0  0  0  0  0  0  0  0
   50.0962   81.6804   23.5970 H   0  0  0  0  0  0  0  0  0  0  0  0
   50.7461   80.0058   23.5970 H   0  0  0  0  0  0  0  0  0  0  0  0
   52.6325   80.1520   22.5406 H   0  0  0  0  0  0  0  0  0  0  0  0
   54.0144   81.1157   23.2579 H   0  0  0  0  0  0  0  0  0  0  0  0
   52.5639   78.7738   24.5406 H   0  0  0  0  0  0  0  0  0  0  0  0
   54.2465   78.8038   23.8824 H   0  0  0  0  0  0  0  0  0  0  0  0
   54.9433   80.4014   25.5362 H   0  0  0  0  0  0  0  0  0  0  0  0
   54.4094   77.4820   29.0420 H   0  0  0  0  0  0  0  0  0  0  0  0
   56.3852   77.8069   30.5444 H   0  0  0  0  0  0  0  0  0  0  0  0
   59.2230   78.8550   29.7700 H   0  0  0  0  0  0  0  0  0  0  0  0
   57.7339   81.7050   33.8077 H   0  0  0  0  0  0  0  0  0  0  0  0
   62.7029   80.6399   31.2507 H   0  0  0  0  0  0  0  0  0  0  0  0
   60.9944   84.5962   31.7727 H   0  0  0  0  0  0  0  0  0  0  0  0
   61.3779   87.9982   30.5080 H   0  0  0  0  0  0  0  0  0  0  0  0
   62.9073   88.2153   29.5912 H   0  0  0  0  0  0  0  0  0  0  0  0
   62.0786   86.6216   29.5912 H   0  0  0  0  0  0  0  0  0  0  0  0
   62.9308   87.1373   33.5853 H   0  0  0  0  0  0  0  0  0  0  0  0
   61.8704   88.3025   32.7225 H   0  0  0  0  0  0  0  0  0  0  0  0
   61.4682   86.5518   32.7225 H   0  0  0  0  0  0  0  0  0  0  0  0
   64.3541   88.8658   31.0146 H   0  0  0  0  0  0  0  0  0  0  0  0
   64.7204   88.1061   32.5745 H   0  0  0  0  0  0  0  0  0  0  0  0
   65.6599   87.3188   29.7803 H   0  0  0  0  0  0  0  0  0  0  0  0
   66.5339   87.1261   31.2734 H   0  0  0  0  0  0  0  0  0  0  0  0
   56.1517   80.2829   26.3244 H   0  0  0  0  0  0  0  0  0  0  0  0
   52.0460   80.2918   26.5856 H   0  0  0  0  0  0  0  0  0  0  0  0
   53.3969   81.2969   27.2422 H   0  0  0  0  0  0  0  0  0  0  0  0
   51.8022   82.5845   25.8184 H   0  0  0  0  0  0  0  0  0  0  0  0
   53.5231   82.5554   25.1953 H   0  0  0  0  0  0  0  0  0  0  0  0
  1  2  1  0
  2  3  1  0
  3  4  1  0
  4  5  1  0
  5  6  1  0
  6  7  1  0
  7  8  2  0
  8  9  1  0
  9 10  2  0
 10 11  1  0
 11 12  1  0
 12 13  2  0
 13 14  1  0
 14 15  2  0
 15 16  1  0
 15 17  1  0
 17 18  1  0
 18 19  2  0
 19 20  1  0
 20 21  1  0
 20 22  2  0
 22 23  1  0
 23 24  2  0
 24 25  1  0
 25 26  1  0
 26 27  2  0
 25 28  1  0
 28 29  1  0
 28 30  1  0
 28 31  1  0
 31 32  1  0
 17 33  2  0
 10 34  1  0
 34 35  2  0
  5 36  1  0
 36 37  1  0
 37  2  1  0
 35  7  1  0
 33 12  1  0
 27 18  1  0
 26 22  1  0
 32 24  1  0
  1 38  1  0
  1 39  1  0
  1 40  1  0
  3 41  1  0
  3 42  1  0
  4 43  1  0
  4 44  1  0
  5 45  1  0
  8 46  1  0
  9 47  1  0
 11 48  1  0
 14 49  1  0
 19 50  1  0
 27 51  1  0
 29 52  1  0
 29 53  1  0
 29 54  1  0
 30 55  1  0
 30 56  1  0
 30 57  1  0
 31 58  1  0
 31 59  1  0
 32 60  1  0
 32 61  1  0
 35 62  1  0
 36 63  1  0
 36 64  1  0
 37 65  1  0
 37 66  1  0
M  END
>  <meeko>  (1) 
{"is_sidechain": false}

>  <smiles>  (1) 
CN1CCC(Oc2ccc(Nc3ncc(F)c(-c4cc(F)c5nc6n(c5c4)C(C)(C)CC6)n3)nc2)CC1

>  <vina_score>  (1) 
-8.516

>  <job_id>  (1) 
e06c9eb89333e6c9

$$$$
