
     RDKit          3D

 48 49  0  0  0  0  0  0  0  0999 V2000
   57.8090   80.9820   33.8490 C   0  0  0  0  0  0  0  0  0  0  0  0
   59.1910   81.0530   33.4850 O   0  0  0  0  0  0  0  0  0  0  0  0
   59.3360   81.1910   32.1310 C   0  0  0  0  0  0  0  0  0  0  0  0
   58.8080   80.2030   31.2890 C   0  0  0  0  0  0  0  0  0  0  0  0
   58.9700   80.2620   29.8950 C   0  0  0  0  0  0  0  0  0  0  0  0
   58.3980   79.2540   29.1130 N   0  0  0  0  0  0  0  0  0  0  0  0
   57.1380   79.0560   28.5560 C   0  0  0  0  0  0  0  0  0  0  0  0
   56.2950   78.1240   29.0170 N   0  0  0  0  0  0  0  0  0  0  0  0
   55.0870   78.0440   28.4250 C   0  0  0  0  0  0  0  0  0  0  0  0
   54.6990   78.8360   27.3710 C   0  0  0  0  0  0  0  0  0  0  0  0
   52.9350   78.7060   26.7130 Br  0  0  0  0  0  0  0  0  0  0  0  0
   55.6450   79.7420   26.9240 C   0  0  0  0  0  0  0  0  0  0  0  0
   55.4110   80.6150   25.8470 N   0  0  0  0  0  0  0  0  0  0  0  0
   54.7390   81.9090   26.1820 C   0  0  2  0  0  0  0  0  0  0  0  0
   53.4950   82.1970   25.3480 C   0  0  0  0  0  0  0  0  0  0  0  0
   55.7650   83.0780   26.1870 C   0  0  1  0  0  0  0  0  0  0  0  0
   55.1230   84.4460   26.3900 C   0  0  0  0  0  0  0  0  0  0  0  0
   56.6850   82.8570   27.2710 O   0  0  0  0  0  0  0  0  0  0  0  0
   56.8440   79.8680   27.5260 N   0  0  0  0  0  0  0  0  0  0  0  0
   59.6840   81.3450   29.3730 C   0  0  0  0  0  0  0  0  0  0  0  0
   60.2360   82.3270   30.2070 C   0  0  0  0  0  0  0  0  0  0  0  0
   60.0700   82.2460   31.5920 C   0  0  0  0  0  0  0  0  0  0  0  0
   60.7630   83.4980   32.6530 S   0  0  0  0  0  0  0  0  0  0  0  0
   61.1580   84.8290   31.5380 C   0  0  0  0  0  0  0  0  0  0  0  0
   59.6270   84.0210   33.5620 N   0  0  0  0  0  0  0  0  0  0  0  0
   61.9990   82.9680   33.1940 O   0  0  0  0  0  0  0  0  0  0  0  0
   57.7183   80.9773   34.9452 H   0  0  0  0  0  0  0  0  0  0  0  0
   57.2770   81.8540   33.4408 H   0  0  0  0  0  0  0  0  0  0  0  0
   57.3692   80.0601   33.4408 H   0  0  0  0  0  0  0  0  0  0  0  0
   58.2537   79.3615   31.7301 H   0  0  0  0  0  0  0  0  0  0  0  0
   59.0130   78.5250   28.7800 H   0  0  0  0  0  0  0  0  0  0  0  0
   54.3704   77.3022   28.8074 H   0  0  0  0  0  0  0  0  0  0  0  0
   54.6680   80.1260   25.3270 H   0  0  0  0  0  0  0  0  0  0  0  0
   54.3482   81.8084   27.2053 H   0  0  0  0  0  0  0  0  0  0  0  0
   52.6434   82.3942   26.0158 H   0  0  0  0  0  0  0  0  0  0  0  0
   53.6747   83.0773   24.7133 H   0  0  0  0  0  0  0  0  0  0  0  0
   53.2696   81.3273   24.7133 H   0  0  0  0  0  0  0  0  0  0  0  0
   56.2566   83.0869   25.2030 H   0  0  0  0  0  0  0  0  0  0  0  0
   55.0273   84.6500   27.4667 H   0  0  0  0  0  0  0  0  0  0  0  0
   55.7523   85.2190   25.9249 H   0  0  0  0  0  0  0  0  0  0  0  0
   54.1262   84.4559   25.9249 H   0  0  0  0  0  0  0  0  0  0  0  0
   56.1590   82.8120   28.0880 H   0  0  0  0  0  0  0  0  0  0  0  0
   59.8153   81.4281   28.2840 H   0  0  0  0  0  0  0  0  0  0  0  0
   60.8012   83.1634   29.7701 H   0  0  0  0  0  0  0  0  0  0  0  0
   61.4241   85.7256   32.1170 H   0  0  0  0  0  0  0  0  0  0  0  0
   62.0080   84.5363   30.9041 H   0  0  0  0  0  0  0  0  0  0  0  0
   60.2859   85.0473   30.9041 H   0  0  0  0  0  0  0  0  0  0  0  0
   59.4390   83.3470   34.3070 H   0  0  0  0  0  0  0  0  0  0  0  0
  1  2  1  0
  2  3  1  0
  3  4  1  0
  4  5  2  0
  5  6  1  0
  6  7  1  0
  7  8  2  0
  8  9  1  0
  9 10  2  0
 10 11  1  0
 10 12  1  0
 12 13  1  0
 13 14  1  0
 14 15  1  0
 14 16  1  0
 16 17  1  0
 16 18  1  0
 12 19  2  0
  5 20  1  0
 20 21  2  0
 21 22  1  0
 22 23  1  0
 23 24  1  0
 23 25  2  0
 23 26  2  0
 22  3  2  0
 19  7  1  0
  1 27  1  0
  1 28  1  0
  1 29  1  0
  4 30  1  0
  6 31  1  0
  9 32  1  0
 13 33  1  0
 14 34  1  1
 15 35  1  0
 15 36  1  0
 15 37  1  0
 16 38  1  6
 17 39  1  0
 17 40  1  0
 17 41  1  0
 18 42  1  0
 20 43  1  0
 21 44  1  0
 24 45  1  0
 24 46  1  0
 24 47  1  0
 25 48  1  0
M  END
>  <meeko>  (1) 
{"is_sidechain": false}

>  <smiles>  (1) 
COc1cc(Nc2ncc(Br)c(N[C@H](C)[C@@H](C)O)n2)ccc1S(C)(=N)=O

>  <vina_score>  (1) 
-7.364

>  <job_id>  (1) 
e08ac362fa01e2e3

$$$$
