
     RDKit          3D

 42 44  0  0  0  0  0  0  0  0999 V2000
   58.7900   79.5060   30.1890 C   0  0  0  0  0  0  0  0  0  0  0  0
   57.7770   79.5680   29.1590 N   0  0  0  0  0  0  0  0  0  0  0  0
   57.7690   80.4660   28.1270 C   0  0  0  0  0  0  0  0  0  0  0  0
   56.6580   80.2210   27.3430 C   0  0  0  0  0  0  0  0  0  0  0  0
   56.2590   80.9730   26.1110 C   0  0  0  0  0  0  0  0  0  0  0  0
   55.0750   81.9110   26.3630 C   0  0  0  0  0  0  0  0  0  0  0  0
   53.8060   81.2160   26.1430 N   0  0  0  0  0  0  0  0  0  0  0  0
   53.0670   81.3840   24.9640 C   0  0  0  0  0  0  0  0  0  0  0  0
   52.6300   82.6580   24.5560 C   0  0  0  0  0  0  0  0  0  0  0  0
   51.9680   82.8560   23.3410 C   0  0  0  0  0  0  0  0  0  0  0  0
   51.7480   81.7720   22.4890 C   0  0  0  0  0  0  0  0  0  0  0  0
   51.0510   81.9770   21.2130 N   0  0  0  0  0  0  0  0  0  0  0  0
   50.6850   83.1270   20.9350 O   0  0  0  0  0  0  0  0  0  0  0  0
   50.8740   80.9870   20.4890 O   0  0  0  0  0  0  0  0  0  0  0  0
   52.1900   80.4950   22.8450 C   0  0  0  0  0  0  0  0  0  0  0  0
   52.8580   80.3020   24.0690 C   0  0  0  0  0  0  0  0  0  0  0  0
   53.3100   78.9300   24.4370 C   0  0  0  0  0  0  0  0  0  0  0  0
   52.6190   78.0500   24.9180 O   0  0  0  0  0  0  0  0  0  0  0  0
   54.6160   78.7270   24.1890 O   0  0  0  0  0  0  0  0  0  0  0  0
   55.9660   79.1170   27.9380 C   0  0  0  0  0  0  0  0  0  0  0  0
   54.7880   78.4150   27.6080 C   0  0  0  0  0  0  0  0  0  0  0  0
   54.3730   77.3580   28.4220 C   0  0  0  0  0  0  0  0  0  0  0  0
   52.9340   76.4980   28.0220 Cl  0  0  0  0  0  0  0  0  0  0  0  0
   55.1010   76.9880   29.5480 C   0  0  0  0  0  0  0  0  0  0  0  0
   56.2720   77.6690   29.8950 C   0  0  0  0  0  0  0  0  0  0  0  0
   56.6850   78.7310   29.0730 C   0  0  0  0  0  0  0  0  0  0  0  0
   58.3095   79.5354   31.1781 H   0  0  0  0  0  0  0  0  0  0  0  0
   59.3607   78.5712   30.0862 H   0  0  0  0  0  0  0  0  0  0  0  0
   59.4704   80.3642   30.0862 H   0  0  0  0  0  0  0  0  0  0  0  0
   58.5199   81.2503   27.9511 H   0  0  0  0  0  0  0  0  0  0  0  0
   57.1166   81.5698   25.7671 H   0  0  0  0  0  0  0  0  0  0  0  0
   55.9519   80.2384   25.3520 H   0  0  0  0  0  0  0  0  0  0  0  0
   55.1142   82.2702   27.4020 H   0  0  0  0  0  0  0  0  0  0  0  0
   55.1399   82.7570   25.6629 H   0  0  0  0  0  0  0  0  0  0  0  0
   53.2050   81.2330   26.9780 H   0  0  0  0  0  0  0  0  0  0  0  0
   52.8145   83.5219   25.2114 H   0  0  0  0  0  0  0  0  0  0  0  0
   51.6220   83.8609   23.0575 H   0  0  0  0  0  0  0  0  0  0  0  0
   52.0165   79.6433   22.1709 H   0  0  0  0  0  0  0  0  0  0  0  0
   54.7650   79.1520   23.3170 H   0  0  0  0  0  0  0  0  0  0  0  0
   54.2028   78.6964   26.7201 H   0  0  0  0  0  0  0  0  0  0  0  0
   54.7522   76.1516   30.1715 H   0  0  0  0  0  0  0  0  0  0  0  0
   56.8521   77.3820   30.7844 H   0  0  0  0  0  0  0  0  0  0  0  0
  1  2  1  0
  2  3  1  0
  3  4  2  0
  4  5  1  0
  5  6  1  0
  6  7  1  0
  7  8  1  0
  8  9  1  0
  9 10  2  0
 10 11  1  0
 11 12  1  0
 12 13  2  0
 12 14  1  0
 11 15  2  0
 15 16  1  0
 16 17  1  0
 17 18  2  0
 17 19  1  0
  4 20  1  0
 20 21  2  0
 21 22  1  0
 22 23  1  0
 22 24  2  0
 24 25  1  0
 25 26  2  0
 26  2  1  0
 16  8  2  0
 26 20  1  0
  1 27  1  0
  1 28  1  0
  1 29  1  0
  3 30  1  0
  5 31  1  0
  5 32  1  0
  6 33  1  0
  6 34  1  0
  7 35  1  0
  9 36  1  0
 10 37  1  0
 15 38  1  0
 19 39  1  0
 21 40  1  0
 24 41  1  0
 25 42  1  0
M  CHG  2  12   1  14  -1
M  END
>  <meeko>  (1) 
{"is_sidechain": false}

>  <smiles>  (1) 
Cn1cc(CCNc2ccc([N+](=O)[O-])cc2C(=O)O)c2cc(Cl)ccc21

>  <vina_score>  (1) 
-8.264

>  <job_id>  (1) 
e0a8f128865a7a8d

$$$$
