
     RDKit          3D

 39 41  0  0  0  0  0  0  0  0999 V2000
   54.2930   79.7820   28.0410 O   0  0  0  0  0  0  0  0  0  0  0  0
   54.7500   78.6460   28.0750 C   0  0  0  0  0  0  0  0  0  0  0  0
   55.9770   78.2570   28.5820 N   0  0  0  0  0  0  0  0  0  0  0  0
   56.9940   79.0910   29.0920 C   0  0  0  0  0  0  0  0  0  0  0  0
   57.1800   79.1070   30.4750 C   0  0  0  0  0  0  0  0  0  0  0  0
   58.1750   79.9070   31.0550 C   0  0  0  0  0  0  0  0  0  0  0  0
   59.0230   80.7170   30.2860 C   0  0  0  0  0  0  0  0  0  0  0  0
   60.0010   81.5070   30.8610 N   0  0  0  0  0  0  0  0  0  0  0  0
   60.7790   82.4840   30.0820 C   0  0  0  0  0  0  0  0  0  0  0  0
   61.2460   83.6330   30.9920 C   0  0  0  0  0  0  0  0  0  0  0  0
   62.0620   83.2130   32.0930 O   0  0  0  0  0  0  0  0  0  0  0  0
   61.7640   81.8840   32.5440 C   0  0  0  0  0  0  0  0  0  0  0  0
   60.3100   81.4470   32.2990 C   0  0  0  0  0  0  0  0  0  0  0  0
   58.8170   80.6800   28.9000 C   0  0  0  0  0  0  0  0  0  0  0  0
   57.8240   79.8820   28.3080 C   0  0  0  0  0  0  0  0  0  0  0  0
   53.9050   77.5290   27.5650 C   0  0  0  0  0  0  0  0  0  0  0  0
   53.6860   76.4230   28.3950 C   0  0  0  0  0  0  0  0  0  0  0  0
   52.9020   75.3580   27.9490 C   0  0  0  0  0  0  0  0  0  0  0  0
   52.3260   75.4000   26.6800 C   0  0  0  0  0  0  0  0  0  0  0  0
   52.5250   76.5090   25.8570 C   0  0  0  0  0  0  0  0  0  0  0  0
   53.3100   77.5770   26.2970 C   0  0  0  0  0  0  0  0  0  0  0  0
   56.1460   77.2640   28.6630 H   0  0  0  0  0  0  0  0  0  0  0  0
   56.5390   78.4852   31.1172 H   0  0  0  0  0  0  0  0  0  0  0  0
   58.2942   79.8989   32.1485 H   0  0  0  0  0  0  0  0  0  0  0  0
   61.6571   81.9853   29.6458 H   0  0  0  0  0  0  0  0  0  0  0  0
   60.1453   82.8932   29.2814 H   0  0  0  0  0  0  0  0  0  0  0  0
   61.8259   84.3421   30.3830 H   0  0  0  0  0  0  0  0  0  0  0  0
   60.3402   84.0846   31.4227 H   0  0  0  0  0  0  0  0  0  0  0  0
   62.4284   81.1836   32.0167 H   0  0  0  0  0  0  0  0  0  0  0  0
   61.9169   81.8778   33.6333 H   0  0  0  0  0  0  0  0  0  0  0  0
   60.1742   80.4161   32.6579 H   0  0  0  0  0  0  0  0  0  0  0  0
   59.6336   82.1236   32.8419 H   0  0  0  0  0  0  0  0  0  0  0  0
   59.4561   81.2982   28.2524 H   0  0  0  0  0  0  0  0  0  0  0  0
   57.7028   79.8836   27.2147 H   0  0  0  0  0  0  0  0  0  0  0  0
   54.1324   76.3934   29.3999 H   0  0  0  0  0  0  0  0  0  0  0  0
   52.7385   74.4855   28.5986 H   0  0  0  0  0  0  0  0  0  0  0  0
   51.7135   74.5572   26.3270 H   0  0  0  0  0  0  0  0  0  0  0  0
   52.0626   76.5422   24.8595 H   0  0  0  0  0  0  0  0  0  0  0  0
   53.4609   78.4537   25.6500 H   0  0  0  0  0  0  0  0  0  0  0  0
  1  2  2  0
  2  3  1  0
  3  4  1  0
  4  5  1  0
  5  6  2  0
  6  7  1  0
  7  8  1  0
  8  9  1  0
  9 10  1  0
 10 11  1  0
 11 12  1  0
 12 13  1  0
  7 14  2  0
 14 15  1  0
  2 16  1  0
 16 17  2  0
 17 18  1  0
 18 19  2  0
 19 20  1  0
 20 21  2  0
 15  4  2  0
 21 16  1  0
 13  8  1  0
  3 22  1  0
  5 23  1  0
  6 24  1  0
  9 25  1  0
  9 26  1  0
 10 27  1  0
 10 28  1  0
 12 29  1  0
 12 30  1  0
 13 31  1  0
 13 32  1  0
 14 33  1  0
 15 34  1  0
 17 35  1  0
 18 36  1  0
 19 37  1  0
 20 38  1  0
 21 39  1  0
M  END
>  <meeko>  (1) 
{"is_sidechain": false}

>  <smiles>  (1) 
O=C(Nc1ccc(N2CCOCC2)cc1)c1ccccc1

>  <vina_score>  (1) 
-7.138

>  <job_id>  (1) 
e196fe5e4f649493

$$$$
