
     RDKit          3D

 38 39  0  0  0  0  0  0  0  0999 V2000
   49.5620   81.3560   22.0960 N   0  0  0  0  0  0  0  0  0  0  0  0
   50.9760   81.9490   21.3980 S   0  0  0  0  0  0  0  0  0  0  0  0
   51.4230   80.9140   20.4940 O   0  0  0  0  0  0  0  0  0  0  0  0
   50.7290   83.3040   20.9690 O   0  0  0  0  0  0  0  0  0  0  0  0
   52.0680   81.9910   22.7940 C   0  0  0  0  0  0  0  0  0  0  0  0
   52.1240   83.1300   23.6020 C   0  0  0  0  0  0  0  0  0  0  0  0
   52.9910   83.1520   24.6960 C   0  0  0  0  0  0  0  0  0  0  0  0
   53.7900   82.0360   24.9950 C   0  0  0  0  0  0  0  0  0  0  0  0
   54.7360   82.0620   26.1740 C   0  0  0  0  0  0  0  0  0  0  0  0
   55.7910   81.0680   25.9990 N   0  0  0  0  0  0  0  0  0  0  0  0
   55.9960   80.2470   27.1920 C   0  0  0  0  0  0  0  0  0  0  0  0
   55.0130   79.1060   27.3140 C   0  0  0  0  0  0  0  0  0  0  0  0
   54.2040   78.7470   26.2280 C   0  0  0  0  0  0  0  0  0  0  0  0
   53.3020   77.6840   26.3340 C   0  0  0  0  0  0  0  0  0  0  0  0
   53.1890   76.9630   27.5310 C   0  0  0  0  0  0  0  0  0  0  0  0
   52.2330   75.8000   27.6390 C   0  0  0  0  0  0  0  0  0  0  0  0
   51.1300   76.1050   28.3780 F   0  0  0  0  0  0  0  0  0  0  0  0
   51.7680   75.3730   26.4320 F   0  0  0  0  0  0  0  0  0  0  0  0
   52.7870   74.7060   28.2310 F   0  0  0  0  0  0  0  0  0  0  0  0
   54.0060   77.3170   28.6150 C   0  0  0  0  0  0  0  0  0  0  0  0
   54.9060   78.3800   28.5080 C   0  0  0  0  0  0  0  0  0  0  0  0
   53.7170   80.9000   24.1730 C   0  0  0  0  0  0  0  0  0  0  0  0
   52.8530   80.8710   23.0790 C   0  0  0  0  0  0  0  0  0  0  0  0
   49.7170   81.2340   23.0990 H   0  0  0  0  0  0  0  0  0  0  0  0
   48.7480   81.9390   21.9070 H   0  0  0  0  0  0  0  0  0  0  0  0
   51.4908   84.0011   23.3780 H   0  0  0  0  0  0  0  0  0  0  0  0
   53.0489   84.0500   25.3286 H   0  0  0  0  0  0  0  0  0  0  0  0
   55.1886   83.0613   26.2541 H   0  0  0  0  0  0  0  0  0  0  0  0
   54.1730   81.8289   27.0898 H   0  0  0  0  0  0  0  0  0  0  0  0
   56.6590   81.5460   25.7640 H   0  0  0  0  0  0  0  0  0  0  0  0
   57.0127   79.8285   27.1563 H   0  0  0  0  0  0  0  0  0  0  0  0
   55.8442   80.8998   28.0643 H   0  0  0  0  0  0  0  0  0  0  0  0
   54.2791   79.3063   25.2838 H   0  0  0  0  0  0  0  0  0  0  0  0
   52.6761   77.4113   25.4715 H   0  0  0  0  0  0  0  0  0  0  0  0
   53.9374   76.7530   29.5569 H   0  0  0  0  0  0  0  0  0  0  0  0
   55.5362   78.6496   29.3684 H   0  0  0  0  0  0  0  0  0  0  0  0
   54.3467   80.0256   24.3940 H   0  0  0  0  0  0  0  0  0  0  0  0
   52.7900   79.9738   22.4457 H   0  0  0  0  0  0  0  0  0  0  0  0
  1  2  1  0
  2  3  2  0
  2  4  2  0
  2  5  1  0
  5  6  1  0
  6  7  2  0
  7  8  1  0
  8  9  1  0
  9 10  1  0
 10 11  1  0
 11 12  1  0
 12 13  1  0
 13 14  2  0
 14 15  1  0
 15 16  1  0
 16 17  1  0
 16 18  1  0
 16 19  1  0
 15 20  2  0
 20 21  1  0
  8 22  2  0
 22 23  1  0
 23  5  2  0
 21 12  2  0
  1 24  1  0
  1 25  1  0
  6 26  1  0
  7 27  1  0
  9 28  1  0
  9 29  1  0
 10 30  1  0
 11 31  1  0
 11 32  1  0
 13 33  1  0
 14 34  1  0
 20 35  1  0
 21 36  1  0
 22 37  1  0
 23 38  1  0
M  END
>  <meeko>  (1) 
{"is_sidechain": false}

>  <smiles>  (1) 
NS(=O)(=O)c1ccc(CNCc2ccc(C(F)(F)F)cc2)cc1

>  <vina_score>  (1) 
-8.479

>  <job_id>  (1) 
e1a491ad25229e15

$$$$
