
     RDKit          3D

 54 56  0  0  0  0  0  0  0  0999 V2000
   64.3340   85.6940   31.3690 C   0  0  0  0  0  0  0  0  0  0  0  0
   63.3380   84.6510   31.6050 N   0  0  0  0  0  0  0  0  0  0  0  0
   61.9910   85.1180   31.2090 C   0  0  0  0  0  0  0  0  0  0  0  0
   60.9010   84.0320   31.3810 C   0  0  0  0  0  0  0  0  0  0  0  0
   61.2700   82.7970   30.6450 N   0  0  0  0  0  0  0  0  0  0  0  0
   60.2300   81.8580   30.5550 C   0  0  0  0  0  0  0  0  0  0  0  0
   59.7120   81.1670   31.6580 C   0  0  0  0  0  0  0  0  0  0  0  0
   58.6770   80.2320   31.5190 C   0  0  0  0  0  0  0  0  0  0  0  0
   58.1440   79.9650   30.2620 C   0  0  0  0  0  0  0  0  0  0  0  0
   57.0610   79.0530   30.1430 N   0  0  0  0  0  0  0  0  0  0  0  0
   56.9280   78.1140   28.7450 S   0  0  0  0  0  0  0  0  0  0  0  0
   58.1840   78.1260   28.0270 O   0  0  0  0  0  0  0  0  0  0  0  0
   56.3110   76.8690   29.1550 O   0  0  0  0  0  0  0  0  0  0  0  0
   55.7290   79.0050   27.7760 C   0  0  0  0  0  0  0  0  0  0  0  0
   56.1520   80.0510   26.9500 C   0  0  0  0  0  0  0  0  0  0  0  0
   55.2100   80.7500   26.1930 C   0  0  0  0  0  0  0  0  0  0  0  0
   53.8530   80.4230   26.2700 C   0  0  0  0  0  0  0  0  0  0  0  0
   52.9200   81.1170   25.4880 N   0  0  0  0  0  0  0  0  0  0  0  0
   53.2800   81.3600   24.2690 C   0  0  0  0  0  0  0  0  0  0  0  0
   52.3660   82.1070   23.3400 C   0  0  0  0  0  0  0  0  0  0  0  0
   51.4830   81.1160   22.6040 C   0  0  0  0  0  0  0  0  0  0  0  0
   51.6810   79.8130   23.1440 O   0  0  0  0  0  0  0  0  0  0  0  0
   53.4420   79.3770   27.1030 C   0  0  0  0  0  0  0  0  0  0  0  0
   54.3750   78.6740   27.8680 C   0  0  0  0  0  0  0  0  0  0  0  0
   58.6500   80.6220   29.1470 C   0  0  0  0  0  0  0  0  0  0  0  0
   59.6850   81.5510   29.2960 C   0  0  0  0  0  0  0  0  0  0  0  0
   62.6170   82.3130   31.0200 C   0  0  0  0  0  0  0  0  0  0  0  0
   63.6690   83.4320   30.8340 C   0  0  0  0  0  0  0  0  0  0  0  0
   64.6996   86.0768   32.3333 H   0  0  0  0  0  0  0  0  0  0  0  0
   65.1756   85.2749   30.7980 H   0  0  0  0  0  0  0  0  0  0  0  0
   63.8765   86.5154   30.7980 H   0  0  0  0  0  0  0  0  0  0  0  0
   61.7235   85.9851   31.8308 H   0  0  0  0  0  0  0  0  0  0  0  0
   62.0327   85.3769   30.1407 H   0  0  0  0  0  0  0  0  0  0  0  0
   60.7916   83.7963   32.4499 H   0  0  0  0  0  0  0  0  0  0  0  0
   59.9529   84.4153   30.9757 H   0  0  0  0  0  0  0  0  0  0  0  0
   60.1276   81.3629   32.6575 H   0  0  0  0  0  0  0  0  0  0  0  0
   58.2860   79.7091   32.4043 H   0  0  0  0  0  0  0  0  0  0  0  0
   56.1510   79.3500   30.4900 H   0  0  0  0  0  0  0  0  0  0  0  0
   57.2171   80.3206   26.8972 H   0  0  0  0  0  0  0  0  0  0  0  0
   55.5382   81.5646   25.5306 H   0  0  0  0  0  0  0  0  0  0  0  0
   54.2619   81.0172   23.9107 H   0  0  0  0  0  0  0  0  0  0  0  0
   51.7379   82.7993   23.9199 H   0  0  0  0  0  0  0  0  0  0  0  0
   52.9635   82.6788   22.6148 H   0  0  0  0  0  0  0  0  0  0  0  0
   50.4285   81.4058   22.7224 H   0  0  0  0  0  0  0  0  0  0  0  0
   51.7445   81.1142   21.5355 H   0  0  0  0  0  0  0  0  0  0  0  0
   52.5730   79.7980   23.5350 H   0  0  0  0  0  0  0  0  0  0  0  0
   52.3771   79.1066   27.1557 H   0  0  0  0  0  0  0  0  0  0  0  0
   54.0463   77.8658   28.5379 H   0  0  0  0  0  0  0  0  0  0  0  0
   58.2374   80.4119   28.1492 H   0  0  0  0  0  0  0  0  0  0  0  0
   60.0835   82.0553   28.4034 H   0  0  0  0  0  0  0  0  0  0  0  0
   62.6074   81.9974   32.0737 H   0  0  0  0  0  0  0  0  0  0  0  0
   62.8825   81.4653   30.3713 H   0  0  0  0  0  0  0  0  0  0  0  0
   64.6471   83.0566   31.1693 H   0  0  0  0  0  0  0  0  0  0  0  0
   63.6853   83.7033   29.7681 H   0  0  0  0  0  0  0  0  0  0  0  0
  1  2  1  0
  2  3  1  0
  3  4  1  0
  4  5  1  0
  5  6  1  0
  6  7  1  0
  7  8  2  0
  8  9  1  0
  9 10  1  0
 10 11  1  0
 11 12  2  0
 11 13  2  0
 11 14  1  0
 14 15  1  0
 15 16  2  0
 16 17  1  0
 17 18  1  0
 18 19  2  3
 19 20  1  0
 20 21  1  0
 21 22  1  0
 17 23  2  0
 23 24  1  0
  9 25  2  0
 25 26  1  0
  5 27  1  0
 27 28  1  0
 28  2  1  0
 26  6  2  0
 24 14  2  0
  1 29  1  0
  1 30  1  0
  1 31  1  0
  3 32  1  0
  3 33  1  0
  4 34  1  0
  4 35  1  0
  7 36  1  0
  8 37  1  0
 10 38  1  0
 15 39  1  0
 16 40  1  0
 19 41  1  0
 20 42  1  0
 20 43  1  0
 21 44  1  0
 21 45  1  0
 22 46  1  0
 23 47  1  0
 24 48  1  0
 25 49  1  0
 26 50  1  0
 27 51  1  0
 27 52  1  0
 28 53  1  0
 28 54  1  0
M  END
>  <meeko>  (1) 
{"is_sidechain": false}

>  <smiles>  (1) 
CN1CCN(c2ccc(NS(=O)(=O)c3ccc(N=CCCO)cc3)cc2)CC1

>  <vina_score>  (1) 
-7.793

>  <job_id>  (1) 
e2981511c9f2d479

$$$$
