
     RDKit          3D

 39 42  0  0  0  0  0  0  0  0999 V2000
   56.1330   76.9330   30.0020 O   0  0  0  0  0  0  0  0  0  0  0  0
   55.6430   77.6060   29.0980 C   0  0  0  0  0  0  0  0  0  0  0  0
   54.4480   77.0420   28.3970 C   0  0  0  0  0  0  0  0  0  0  0  0
   54.0630   75.7180   28.6460 C   0  0  0  0  0  0  0  0  0  0  0  0
   52.9380   75.1810   28.0200 C   0  0  0  0  0  0  0  0  0  0  0  0
   52.1850   75.9670   27.1500 C   0  0  0  0  0  0  0  0  0  0  0  0
   52.5570   77.2880   26.9000 C   0  0  0  0  0  0  0  0  0  0  0  0
   53.6960   77.8280   27.5130 C   0  0  0  0  0  0  0  0  0  0  0  0
   54.0900   79.2550   27.2850 C   0  0  0  0  0  0  0  0  0  0  0  0
   55.6040   79.3960   27.3900 C   0  0  0  0  0  0  0  0  0  0  0  0
   56.1270   78.8520   28.6460 N   0  0  0  0  0  0  0  0  0  0  0  0
   57.2670   79.4820   29.2540 C   0  0  0  0  0  0  0  0  0  0  0  0
   58.2400   80.1390   28.4870 C   0  0  0  0  0  0  0  0  0  0  0  0
   59.3410   80.7660   29.0880 C   0  0  0  0  0  0  0  0  0  0  0  0
   59.5210   80.7460   30.4730 C   0  0  0  0  0  0  0  0  0  0  0  0
   60.6120   81.4460   31.0350 N   0  0  0  0  0  0  0  0  0  0  0  0
   60.4160   82.7030   31.7570 C   0  0  0  0  0  0  0  0  0  0  0  0
   59.6180   83.8250   31.1590 C   0  0  0  0  0  0  0  0  0  0  0  0
   61.1070   83.9500   31.2810 C   0  0  0  0  0  0  0  0  0  0  0  0
   58.5360   80.1290   31.2440 C   0  0  0  0  0  0  0  0  0  0  0  0
   57.4350   79.4970   30.6440 C   0  0  0  0  0  0  0  0  0  0  0  0
   54.6512   75.0985   29.3390 H   0  0  0  0  0  0  0  0  0  0  0  0
   52.6456   74.1383   28.2129 H   0  0  0  0  0  0  0  0  0  0  0  0
   51.2955   75.5450   26.6594 H   0  0  0  0  0  0  0  0  0  0  0  0
   51.9546   77.9079   26.2196 H   0  0  0  0  0  0  0  0  0  0  0  0
   53.7627   79.5685   26.2827 H   0  0  0  0  0  0  0  0  0  0  0  0
   53.6126   79.8895   28.0462 H   0  0  0  0  0  0  0  0  0  0  0  0
   56.0685   78.8577   26.5507 H   0  0  0  0  0  0  0  0  0  0  0  0
   55.8450   80.4689   27.3616 H   0  0  0  0  0  0  0  0  0  0  0  0
   58.1375   80.1630   27.3920 H   0  0  0  0  0  0  0  0  0  0  0  0
   60.0776   81.2839   28.4561 H   0  0  0  0  0  0  0  0  0  0  0  0
   61.2960   80.8070   31.4360 H   0  0  0  0  0  0  0  0  0  0  0  0
   60.3674   82.1419   32.7019 H   0  0  0  0  0  0  0  0  0  0  0  0
   59.1560   83.7036   30.1682 H   0  0  0  0  0  0  0  0  0  0  0  0
   58.7582   84.4277   31.4867 H   0  0  0  0  0  0  0  0  0  0  0  0
   61.7371   83.9198   30.3799 H   0  0  0  0  0  0  0  0  0  0  0  0
   61.7915   84.6815   31.7351 H   0  0  0  0  0  0  0  0  0  0  0  0
   58.6231   80.1376   32.3405 H   0  0  0  0  0  0  0  0  0  0  0  0
   56.6870   79.0021   31.2808 H   0  0  0  0  0  0  0  0  0  0  0  0
  1  2  2  0
  2  3  1  0
  3  4  2  0
  4  5  1  0
  5  6  2  0
  6  7  1  0
  7  8  2  0
  8  9  1  0
  9 10  1  0
 10 11  1  0
 11 12  1  0
 12 13  1  0
 13 14  2  0
 14 15  1  0
 15 16  1  0
 16 17  1  0
 17 18  1  0
 18 19  1  0
 15 20  2  0
 20 21  1  0
 11  2  1  0
 21 12  2  0
  8  3  1  0
 19 17  1  0
  4 22  1  0
  5 23  1  0
  6 24  1  0
  7 25  1  0
  9 26  1  0
  9 27  1  0
 10 28  1  0
 10 29  1  0
 13 30  1  0
 14 31  1  0
 16 32  1  0
 17 33  1  0
 18 34  1  0
 18 35  1  0
 19 36  1  0
 19 37  1  0
 20 38  1  0
 21 39  1  0
M  END
>  <meeko>  (1) 
{"is_sidechain": false}

>  <smiles>  (1) 
O=C1c2ccccc2CCN1c1ccc(NC2CC2)cc1

>  <vina_score>  (1) 
-7.912

>  <job_id>  (1) 
e2e0815a84b4119b

$$$$
