
     RDKit          3D

 60 61  0  0  0  0  0  0  0  0999 V2000
   52.5600   82.5290   23.9710 C   0  0  0  0  0  0  0  0  0  0  0  0
   52.5940   81.1860   24.6520 C   0  0  0  0  0  0  0  0  0  0  0  0
   51.5610   80.6070   24.9950 O   0  0  0  0  0  0  0  0  0  0  0  0
   53.9630   80.5650   24.9200 C   0  0  0  0  0  0  0  0  0  0  0  0
   54.0600   79.2950   24.2700 O   0  0  0  0  0  0  0  0  0  0  0  0
   54.2070   80.4500   26.4410 C   0  0  0  0  0  0  0  0  0  0  0  0
   53.4880   81.5440   27.2350 C   0  0  0  0  0  0  0  0  0  0  0  0
   53.6980   79.1970   26.9400 O   0  0  0  0  0  0  0  0  0  0  0  0
   54.5820   78.4470   27.6860 C   0  0  0  0  0  0  0  0  0  0  0  0
   55.8230   78.9320   27.9080 N   0  0  0  0  0  0  0  0  0  0  0  0
   56.6600   78.1720   28.6330 C   0  0  0  0  0  0  0  0  0  0  0  0
   57.9170   78.7250   28.8580 N   0  0  0  0  0  0  0  0  0  0  0  0
   58.3830   79.7880   29.6410 C   0  0  0  0  0  0  0  0  0  0  0  0
   58.1850   79.8840   31.0230 C   0  0  0  0  0  0  0  0  0  0  0  0
   58.6600   80.9790   31.7540 C   0  0  0  0  0  0  0  0  0  0  0  0
   59.3280   82.0100   31.0940 C   0  0  0  0  0  0  0  0  0  0  0  0
   59.9320   83.4030   32.0290 S   0  0  0  0  0  0  0  0  0  0  0  0
   60.3900   84.3420   31.0200 O   0  0  0  0  0  0  0  0  0  0  0  0
   58.8860   83.7770   32.9630 O   0  0  0  0  0  0  0  0  0  0  0  0
   61.3410   82.7770   32.9520 C   0  0  2  0  0  0  0  0  0  0  0  0
   61.5840   83.5120   34.2800 C   0  0  1  0  0  0  0  0  0  0  0  0
   61.7380   85.0240   34.1800 C   0  0  0  0  0  0  0  0  0  0  0  0
   60.4350   83.2890   35.1210 O   0  0  0  0  0  0  0  0  0  0  0  0
   62.8630   82.8570   31.9990 S   0  0  0  0  0  4  0  0  0  0  0  0
   64.1340   82.0730   32.9310 C   0  0  0  0  0  0  0  0  0  0  0  0
   62.6540   82.0600   30.6450 F   0  0  0  0  0  0  0  0  0  0  0  0
   59.5580   81.9330   29.7220 C   0  0  0  0  0  0  0  0  0  0  0  0
   59.0800   80.8310   29.0050 C   0  0  0  0  0  0  0  0  0  0  0  0
   56.3110   76.9770   29.1240 N   0  0  0  0  0  0  0  0  0  0  0  0
   55.0640   76.5330   28.8760 C   0  0  0  0  0  0  0  0  0  0  0  0
   54.1380   77.2380   28.1530 C   0  0  0  0  0  0  0  0  0  0  0  0
   52.7700   76.7280   27.8980 C   0  0  0  0  0  0  0  0  0  0  0  0
   52.4540   76.6750   26.5750 F   0  0  0  0  0  0  0  0  0  0  0  0
   51.8030   77.5080   28.4650 F   0  0  0  0  0  0  0  0  0  0  0  0
   52.5600   75.4800   28.3950 F   0  0  0  0  0  0  0  0  0  0  0  0
   52.5399   83.3247   24.7303 H   0  0  0  0  0  0  0  0  0  0  0  0
   53.4555   82.6443   23.3427 H   0  0  0  0  0  0  0  0  0  0  0  0
   51.6598   82.5988   23.3427 H   0  0  0  0  0  0  0  0  0  0  0  0
   54.7475   81.2151   24.5053 H   0  0  0  0  0  0  0  0  0  0  0  0
   54.2430   79.4800   23.3260 H   0  0  0  0  0  0  0  0  0  0  0  0
   55.2953   80.5390   26.5741 H   0  0  0  0  0  0  0  0  0  0  0  0
   53.6112   81.3565   28.3119 H   0  0  0  0  0  0  0  0  0  0  0  0
   53.9187   82.5240   26.9818 H   0  0  0  0  0  0  0  0  0  0  0  0
   52.4176   81.5374   26.9818 H   0  0  0  0  0  0  0  0  0  0  0  0
   58.6100   78.2160   28.3320 H   0  0  0  0  0  0  0  0  0  0  0  0
   57.6443   79.0815   31.5461 H   0  0  0  0  0  0  0  0  0  0  0  0
   58.5074   81.0260   32.8423 H   0  0  0  0  0  0  0  0  0  0  0  0
   61.0761   81.7314   33.1679 H   0  0  0  0  0  0  0  0  0  0  0  0
   62.5337   83.1119   34.6648 H   0  0  0  0  0  0  0  0  0  0  0  0
   61.7820   85.4557   35.1908 H   0  0  0  0  0  0  0  0  0  0  0  0
   62.6651   85.2631   33.6385 H   0  0  0  0  0  0  0  0  0  0  0  0
   60.8781   85.4451   33.6385 H   0  0  0  0  0  0  0  0  0  0  0  0
   60.6480   83.6390   36.0060 H   0  0  0  0  0  0  0  0  0  0  0  0
   63.1780   84.1450   31.7300 H   0  0  0  0  0  0  0  0  0  0  0  0
   63.9314   82.1980   34.0049 H   0  0  0  0  0  0  0  0  0  0  0  0
   64.1609   81.0011   32.6852 H   0  0  0  0  0  0  0  0  0  0  0  0
   65.1039   82.5300   32.6852 H   0  0  0  0  0  0  0  0  0  0  0  0
   60.1110   82.7322   29.2068 H   0  0  0  0  0  0  0  0  0  0  0  0
   59.2531   80.7791   27.9199 H   0  0  0  0  0  0  0  0  0  0  0  0
   54.7729   75.5504   29.2758 H   0  0  0  0  0  0  0  0  0  0  0  0
  1  2  1  0
  2  3  2  0
  2  4  1  0
  4  5  1  0
  4  6  1  0
  6  7  1  0
  6  8  1  0
  8  9  1  0
  9 10  2  0
 10 11  1  0
 11 12  1  0
 12 13  1  0
 13 14  1  0
 14 15  2  0
 15 16  1  0
 16 17  1  0
 17 18  2  0
 17 19  2  0
 17 20  1  0
 20 21  1  0
 21 22  1  0
 21 23  1  0
 20 24  1  0
 24 25  1  0
 24 26  1  0
 16 27  2  0
 27 28  1  0
 11 29  2  0
 29 30  1  0
 30 31  2  0
 31 32  1  0
 32 33  1  0
 32 34  1  0
 32 35  1  0
 31  9  1  0
 28 13  2  0
  1 36  1  0
  1 37  1  0
  1 38  1  0
  4 39  1  0
  5 40  1  0
  6 41  1  0
  7 42  1  0
  7 43  1  0
  7 44  1  0
 12 45  1  0
 14 46  1  0
 15 47  1  0
 20 48  1  1
 21 49  1  1
 22 50  1  0
 22 51  1  0
 22 52  1  0
 23 53  1  0
 24 54  1  0
 25 55  1  0
 25 56  1  0
 25 57  1  0
 27 58  1  0
 28 59  1  0
 30 60  1  0
M  END
>  <meeko>  (1) 
{"is_sidechain": false}

>  <smiles>  (1) 
CC(=O)C(O)C(C)Oc1nc(Nc2ccc(S(=O)(=O)[C@H]([C@@H](C)O)[SH](C)F)cc2)ncc1C(F)(F)F

>  <vina_score>  (1) 
-8.013

>  <job_id>  (1) 
e316e104a2229049

$$$$
