
     RDKit          3D

 35 36  0  0  0  0  0  0  0  0999 V2000
   53.3190   82.1340   27.0370 C   0  0  0  0  0  0  0  0  0  0  0  0
   54.0820   81.1440   26.1880 C   0  0  0  0  0  0  0  0  0  0  0  0
   54.9290   81.5750   25.3950 O   0  0  0  0  0  0  0  0  0  0  0  0
   53.8340   79.3430   26.2080 S   0  0  0  0  0  0  0  0  0  0  0  0
   54.4350   78.8510   24.9790 O   0  0  0  0  0  0  0  0  0  0  0  0
   52.4230   79.1410   26.4860 O   0  0  0  0  0  0  0  0  0  0  0  0
   54.7780   78.7320   27.5750 C   0  0  0  0  0  0  0  0  0  0  0  0
   54.5040   77.4650   28.0920 C   0  0  0  0  0  0  0  0  0  0  0  0
   55.2720   76.9820   29.1480 C   0  0  0  0  0  0  0  0  0  0  0  0
   56.3100   77.7570   29.6730 C   0  0  0  0  0  0  0  0  0  0  0  0
   56.6090   79.0280   29.1510 C   0  0  0  0  0  0  0  0  0  0  0  0
   57.7100   79.8360   29.7030 C   0  0  0  0  0  0  0  0  0  0  0  0
   58.5560   80.5790   28.8600 C   0  0  0  0  0  0  0  0  0  0  0  0
   59.5980   81.3500   29.3810 C   0  0  0  0  0  0  0  0  0  0  0  0
   59.8080   81.3780   30.7600 C   0  0  0  0  0  0  0  0  0  0  0  0
   61.1270   82.3650   31.4160 S   0  0  0  0  0  0  0  0  0  0  0  0
   62.4580   81.7320   30.6010 N   0  0  0  0  0  0  0  0  0  0  0  0
   60.9400   83.7270   30.9780 O   0  0  0  0  0  0  0  0  0  0  0  0
   61.3210   82.0110   32.8040 O   0  0  0  0  0  0  0  0  0  0  0  0
   58.9780   80.6610   31.6220 C   0  0  0  0  0  0  0  0  0  0  0  0
   57.9380   79.8930   31.0900 C   0  0  0  0  0  0  0  0  0  0  0  0
   55.8280   79.5050   28.0860 C   0  0  0  0  0  0  0  0  0  0  0  0
   53.4896   81.9127   28.1009 H   0  0  0  0  0  0  0  0  0  0  0  0
   53.6674   83.1533   26.8141 H   0  0  0  0  0  0  0  0  0  0  0  0
   52.2446   82.0568   26.8141 H   0  0  0  0  0  0  0  0  0  0  0  0
   53.6912   76.8554   27.6703 H   0  0  0  0  0  0  0  0  0  0  0  0
   55.0615   75.9883   29.5701 H   0  0  0  0  0  0  0  0  0  0  0  0
   56.9048   77.3649   30.5111 H   0  0  0  0  0  0  0  0  0  0  0  0
   58.3944   80.5525   27.7723 H   0  0  0  0  0  0  0  0  0  0  0  0
   60.2477   81.9304   28.7094 H   0  0  0  0  0  0  0  0  0  0  0  0
   63.2990   82.2980   30.7000 H   0  0  0  0  0  0  0  0  0  0  0  0
   62.2070   81.5900   29.6210 H   0  0  0  0  0  0  0  0  0  0  0  0
   59.1402   80.6995   32.7093 H   0  0  0  0  0  0  0  0  0  0  0  0
   57.2861   79.3229   31.7683 H   0  0  0  0  0  0  0  0  0  0  0  0
   56.0423   80.4921   27.6503 H   0  0  0  0  0  0  0  0  0  0  0  0
  1  2  1  0
  2  3  2  0
  2  4  1  0
  4  5  2  0
  4  6  2  0
  4  7  1  0
  7  8  2  0
  8  9  1  0
  9 10  2  0
 10 11  1  0
 11 12  1  0
 12 13  1  0
 13 14  2  0
 14 15  1  0
 15 16  1  0
 16 17  1  0
 16 18  2  0
 16 19  2  0
 15 20  2  0
 20 21  1  0
 11 22  2  0
 22  7  1  0
 21 12  2  0
  1 23  1  0
  1 24  1  0
  1 25  1  0
  8 26  1  0
  9 27  1  0
 10 28  1  0
 13 29  1  0
 14 30  1  0
 17 31  1  0
 17 32  1  0
 20 33  1  0
 21 34  1  0
 22 35  1  0
M  END
>  <meeko>  (1) 
{"is_sidechain": false}

>  <smiles>  (1) 
CC(=O)S(=O)(=O)c1cccc(-c2ccc(S(N)(=O)=O)cc2)c1

>  <vina_score>  (1) 
-7.649

>  <job_id>  (1) 
e358d7cf7c1ce8c9

$$$$
