
     RDKit          3D

 56 58  0  0  0  0  0  0  0  0999 V2000
   64.6920   82.5690   31.0290 C   0  0  0  0  0  0  0  0  0  0  0  0
   64.0460   83.6890   30.6560 C   0  0  0  0  0  0  0  0  0  0  0  0
   64.7420   84.7370   29.8280 C   0  0  0  0  0  0  0  0  0  0  0  0
   62.6230   84.0190   31.0400 C   0  0  0  0  0  0  0  0  0  0  0  0
   62.4740   84.1060   32.4400 O   0  0  0  0  0  0  0  0  0  0  0  0
   61.7860   82.9380   30.6260 N   0  0  0  0  0  0  0  0  0  0  0  0
   60.4180   83.0220   30.6800 C   0  0  0  0  0  0  0  0  0  0  0  0
   59.8410   84.0430   31.0420 O   0  0  0  0  0  0  0  0  0  0  0  0
   59.6360   81.8110   30.3060 C   0  0  0  0  0  0  0  0  0  0  0  0
   59.5180   81.4830   28.9520 C   0  0  0  0  0  0  0  0  0  0  0  0
   58.7950   80.3500   28.5500 C   0  0  0  0  0  0  0  0  0  0  0  0
   58.1700   79.5150   29.4830 C   0  0  0  0  0  0  0  0  0  0  0  0
   57.4400   78.3710   29.1450 N   0  0  0  0  0  0  0  0  0  0  0  0
   56.1220   78.1450   28.7650 C   0  0  0  0  0  0  0  0  0  0  0  0
   55.4110   77.3770   29.6140 N   0  0  0  0  0  0  0  0  0  0  0  0
   54.1220   77.1280   29.2950 C   0  0  0  0  0  0  0  0  0  0  0  0
   53.5220   77.6080   28.1630 C   0  0  0  0  0  0  0  0  0  0  0  0
   52.2440   77.3280   27.8790 F   0  0  0  0  0  0  0  0  0  0  0  0
   54.3210   78.3750   27.3490 C   0  0  0  0  0  0  0  0  0  0  0  0
   53.8410   78.9940   26.1240 C   0  0  0  0  0  0  0  0  0  0  0  0
   53.3020   78.3820   25.0120 C   0  0  0  0  0  0  0  0  0  0  0  0
   53.0030   79.2890   24.0400 N   0  0  0  0  0  0  0  0  0  0  0  0
   53.3100   80.4710   24.5380 C   0  0  0  0  0  0  0  0  0  0  0  0
   53.1600   81.7380   23.7760 C   0  0  0  0  0  0  0  0  0  0  0  0
   53.7890   80.3510   25.8320 N   0  0  0  0  0  0  0  0  0  0  0  0
   54.1020   81.4290   26.7710 C   0  0  0  0  0  0  0  0  0  0  0  0
   52.9590   82.4360   26.9010 C   0  0  0  0  0  0  0  0  0  0  0  0
   55.4450   82.1100   26.5030 C   0  0  0  0  0  0  0  0  0  0  0  0
   55.6100   78.6560   27.6360 N   0  0  0  0  0  0  0  0  0  0  0  0
   58.2960   79.8550   30.8380 C   0  0  0  0  0  0  0  0  0  0  0  0
   59.0160   80.9830   31.2390 C   0  0  0  0  0  0  0  0  0  0  0  0
   59.0870   81.2420   32.5540 F   0  0  0  0  0  0  0  0  0  0  0  0
   64.1734   81.8105   31.6338 H   0  0  0  0  0  0  0  0  0  0  0  0
   65.7386   82.4120   30.7291 H   0  0  0  0  0  0  0  0  0  0  0  0
   65.2269   85.4671   30.4927 H   0  0  0  0  0  0  0  0  0  0  0  0
   65.5019   84.2578   29.1933 H   0  0  0  0  0  0  0  0  0  0  0  0
   64.0055   85.2515   29.1933 H   0  0  0  0  0  0  0  0  0  0  0  0
   62.3600   84.9778   30.5694 H   0  0  0  0  0  0  0  0  0  0  0  0
   63.3630   83.9010   32.7760 H   0  0  0  0  0  0  0  0  0  0  0  0
   62.2350   82.0410   30.4930 H   0  0  0  0  0  0  0  0  0  0  0  0
   59.9971   82.1201   28.1940 H   0  0  0  0  0  0  0  0  0  0  0  0
   58.7177   80.1129   27.4786 H   0  0  0  0  0  0  0  0  0  0  0  0
   57.9230   77.4840   29.1870 H   0  0  0  0  0  0  0  0  0  0  0  0
   53.5248   76.5081   29.9799 H   0  0  0  0  0  0  0  0  0  0  0  0
   53.1346   77.2986   24.9211 H   0  0  0  0  0  0  0  0  0  0  0  0
   53.0605   82.5787   24.4784 H   0  0  0  0  0  0  0  0  0  0  0  0
   54.0462   81.8922   23.1428 H   0  0  0  0  0  0  0  0  0  0  0  0
   52.2623   81.6810   23.1428 H   0  0  0  0  0  0  0  0  0  0  0  0
   54.2135   80.9381   27.7491 H   0  0  0  0  0  0  0  0  0  0  0  0
   52.7510   82.6192   27.9655 H   0  0  0  0  0  0  0  0  0  0  0  0
   53.2455   83.3806   26.4155 H   0  0  0  0  0  0  0  0  0  0  0  0
   52.0581   82.0327   26.4155 H   0  0  0  0  0  0  0  0  0  0  0  0
   55.9290   82.3554   27.4598 H   0  0  0  0  0  0  0  0  0  0  0  0
   56.0921   81.4311   25.9282 H   0  0  0  0  0  0  0  0  0  0  0  0
   55.2797   83.0332   25.9282 H   0  0  0  0  0  0  0  0  0  0  0  0
   57.8186   79.2211   31.5997 H   0  0  0  0  0  0  0  0  0  0  0  0
  1  2  2  0
  2  3  1  0
  2  4  1  0
  4  5  1  0
  4  6  1  0
  6  7  1  0
  7  8  2  0
  7  9  1  0
  9 10  1  0
 10 11  2  0
 11 12  1  0
 12 13  1  0
 13 14  1  0
 14 15  2  0
 15 16  1  0
 16 17  2  0
 17 18  1  0
 17 19  1  0
 19 20  1  0
 20 21  2  0
 21 22  1  0
 22 23  2  0
 23 24  1  0
 23 25  1  0
 25 26  1  0
 26 27  1  0
 26 28  1  0
 19 29  2  0
 12 30  2  0
 30 31  1  0
 31 32  1  0
 31  9  2  0
 29 14  1  0
 25 20  1  0
  1 33  1  0
  1 34  1  0
  3 35  1  0
  3 36  1  0
  3 37  1  0
  4 38  1  0
  5 39  1  0
  6 40  1  0
 10 41  1  0
 11 42  1  0
 13 43  1  0
 16 44  1  0
 21 45  1  0
 24 46  1  0
 24 47  1  0
 24 48  1  0
 26 49  1  0
 27 50  1  0
 27 51  1  0
 27 52  1  0
 28 53  1  0
 28 54  1  0
 28 55  1  0
 30 56  1  0
M  END
>  <meeko>  (1) 
{"is_sidechain": false}

>  <smiles>  (1) 
C=C(C)C(O)NC(=O)c1ccc(Nc2ncc(F)c(-c3cnc(C)n3C(C)C)n2)cc1F

>  <vina_score>  (1) 
-8.647

>  <job_id>  (1) 
e35ebc07b2bca0b6

$$$$
