
     RDKit          3D

 38 39  0  0  0  0  0  0  0  0999 V2000
   52.1850   75.3610   26.5210 C   0  0  0  0  0  0  0  0  0  0  0  0
   52.1820   76.2470   27.7570 C   0  0  0  0  0  0  0  0  0  0  0  0
   53.3100   77.2460   27.7330 C   0  0  0  0  0  0  0  0  0  0  0  0
   54.2580   77.2710   28.7630 C   0  0  0  0  0  0  0  0  0  0  0  0
   55.3090   78.1900   28.7360 C   0  0  0  0  0  0  0  0  0  0  0  0
   55.4400   79.0920   27.6730 C   0  0  0  0  0  0  0  0  0  0  0  0
   56.5760   80.0870   27.6450 C   0  0  0  0  0  0  0  0  0  0  0  0
   57.9010   79.5430   28.1570 C   0  0  0  0  0  0  0  0  0  0  0  0
   58.4800   78.5840   27.6500 O   0  0  0  0  0  0  0  0  0  0  0  0
   58.5270   80.2030   29.3460 C   0  0  0  0  0  0  0  0  0  0  0  0
   59.4920   81.1990   29.1220 C   0  0  0  0  0  0  0  0  0  0  0  0
   60.1090   81.8480   30.1950 C   0  0  0  0  0  0  0  0  0  0  0  0
   59.7660   81.4920   31.5010 C   0  0  0  0  0  0  0  0  0  0  0  0
   60.5220   82.3340   32.8620 S   0  0  0  0  0  0  0  0  0  0  0  0
   59.3100   82.2720   34.0200 N   0  0  0  0  0  0  0  0  0  0  0  0
   60.6790   83.7290   32.5250 O   0  0  0  0  0  0  0  0  0  0  0  0
   61.6080   81.5310   33.3720 O   0  0  0  0  0  0  0  0  0  0  0  0
   58.8010   80.5100   31.7400 C   0  0  0  0  0  0  0  0  0  0  0  0
   58.1860   79.8640   30.6630 C   0  0  0  0  0  0  0  0  0  0  0  0
   54.4890   79.0680   26.6450 C   0  0  0  0  0  0  0  0  0  0  0  0
   53.4360   78.1500   26.6730 C   0  0  0  0  0  0  0  0  0  0  0  0
   52.1886   74.3045   26.8272 H   0  0  0  0  0  0  0  0  0  0  0  0
   51.2862   75.5658   25.9209 H   0  0  0  0  0  0  0  0  0  0  0  0
   53.0824   75.5719   25.9209 H   0  0  0  0  0  0  0  0  0  0  0  0
   51.2265   76.7901   27.8033 H   0  0  0  0  0  0  0  0  0  0  0  0
   52.3145   75.6033   28.6391 H   0  0  0  0  0  0  0  0  0  0  0  0
   54.1743   76.5616   29.5995 H   0  0  0  0  0  0  0  0  0  0  0  0
   56.0407   78.2055   29.5572 H   0  0  0  0  0  0  0  0  0  0  0  0
   56.7184   80.4173   26.6055 H   0  0  0  0  0  0  0  0  0  0  0  0
   56.2915   80.9072   28.3206 H   0  0  0  0  0  0  0  0  0  0  0  0
   59.7648   81.4708   28.0916 H   0  0  0  0  0  0  0  0  0  0  0  0
   60.8583   82.6324   30.0124 H   0  0  0  0  0  0  0  0  0  0  0  0
   59.1180   81.3000   34.2700 H   0  0  0  0  0  0  0  0  0  0  0  0
   59.5620   82.8570   34.8180 H   0  0  0  0  0  0  0  0  0  0  0  0
   58.5261   80.2460   32.7719 H   0  0  0  0  0  0  0  0  0  0  0  0
   57.4311   79.0861   30.8500 H   0  0  0  0  0  0  0  0  0  0  0  0
   54.5718   79.7777   25.8087 H   0  0  0  0  0  0  0  0  0  0  0  0
   52.7004   78.1381   25.8552 H   0  0  0  0  0  0  0  0  0  0  0  0
  1  2  1  0
  2  3  1  0
  3  4  1  0
  4  5  2  0
  5  6  1  0
  6  7  1  0
  7  8  1  0
  8  9  2  0
  8 10  1  0
 10 11  1  0
 11 12  2  0
 12 13  1  0
 13 14  1  0
 14 15  1  0
 14 16  2  0
 14 17  2  0
 13 18  2  0
 18 19  1  0
  6 20  2  0
 20 21  1  0
 21  3  2  0
 19 10  2  0
  1 22  1  0
  1 23  1  0
  1 24  1  0
  2 25  1  0
  2 26  1  0
  4 27  1  0
  5 28  1  0
  7 29  1  0
  7 30  1  0
 11 31  1  0
 12 32  1  0
 15 33  1  0
 15 34  1  0
 18 35  1  0
 19 36  1  0
 20 37  1  0
 21 38  1  0
M  END
>  <meeko>  (1) 
{"is_sidechain": false}

>  <smiles>  (1) 
CCc1ccc(CC(=O)c2ccc(S(N)(=O)=O)cc2)cc1

>  <vina_score>  (1) 
-8.360

>  <job_id>  (1) 
e3ac6935ed128d3d

$$$$
