
     RDKit          3D

 42 44  0  0  0  0  0  0  0  0999 V2000
   57.8100   81.3560   33.6450 C   0  0  0  0  0  0  0  0  0  0  0  0
   58.4250   81.3860   32.2770 C   0  0  0  0  0  0  0  0  0  0  0  0
   59.1660   82.4970   31.8560 C   0  0  0  0  0  0  0  0  0  0  0  0
   59.7170   82.5310   30.5770 C   0  0  0  0  0  0  0  0  0  0  0  0
   59.5170   81.4620   29.7100 C   0  0  0  0  0  0  0  0  0  0  0  0
   60.0600   81.5160   28.4850 F   0  0  0  0  0  0  0  0  0  0  0  0
   58.7640   80.3500   30.0910 C   0  0  0  0  0  0  0  0  0  0  0  0
   58.5600   79.1960   29.1430 C   0  0  0  0  0  0  0  0  0  0  0  0
   57.2350   79.2360   28.4190 C   0  0  0  0  0  0  0  0  0  0  0  0
   56.2270   78.3180   28.7280 C   0  0  0  0  0  0  0  0  0  0  0  0
   54.9920   78.3600   28.0680 C   0  0  0  0  0  0  0  0  0  0  0  0
   54.7240   79.3170   27.0820 C   0  0  0  0  0  0  0  0  0  0  0  0
   53.5110   79.3990   26.3840 N   0  0  0  0  0  0  0  0  0  0  0  0
   53.2350   78.4410   25.2950 C   0  0  0  0  0  0  0  0  0  0  0  0
   53.3090   79.1170   23.9090 C   0  0  0  0  0  0  0  0  0  0  0  0
   52.3740   80.2440   23.7200 N   0  0  0  0  0  0  0  0  0  0  0  0
   52.0170   80.8650   25.0130 C   0  0  0  0  0  0  0  0  0  0  0  0
   53.1270   80.8030   26.0860 C   0  0  0  0  0  0  0  0  0  0  0  0
   55.7470   80.2310   26.7810 C   0  0  0  0  0  0  0  0  0  0  0  0
   56.9820   80.1980   27.4380 C   0  0  0  0  0  0  0  0  0  0  0  0
   58.2200   80.3220   31.3850 C   0  0  0  0  0  0  0  0  0  0  0  0
   58.6043   81.3947   34.4050 H   0  0  0  0  0  0  0  0  0  0  0  0
   57.1436   82.2227   33.7665 H   0  0  0  0  0  0  0  0  0  0  0  0
   57.2311   80.4286   33.7665 H   0  0  0  0  0  0  0  0  0  0  0  0
   59.3137   83.3470   32.5384 H   0  0  0  0  0  0  0  0  0  0  0  0
   60.3083   83.4004   30.2538 H   0  0  0  0  0  0  0  0  0  0  0  0
   59.3660   79.2139   28.3946 H   0  0  0  0  0  0  0  0  0  0  0  0
   58.5704   78.2765   29.7467 H   0  0  0  0  0  0  0  0  0  0  0  0
   56.4057   77.5536   29.4985 H   0  0  0  0  0  0  0  0  0  0  0  0
   54.2163   77.6254   28.3301 H   0  0  0  0  0  0  0  0  0  0  0  0
   53.9773   77.6302   25.3365 H   0  0  0  0  0  0  0  0  0  0  0  0
   52.2163   78.0494   25.4321 H   0  0  0  0  0  0  0  0  0  0  0  0
   54.3326   79.4937   23.7660 H   0  0  0  0  0  0  0  0  0  0  0  0
   53.0227   78.3500   23.1743 H   0  0  0  0  0  0  0  0  0  0  0  0
   51.5180   79.9080   23.2810 H   0  0  0  0  0  0  0  0  0  0  0  0
   51.7754   81.9225   24.8304 H   0  0  0  0  0  0  0  0  0  0  0  0
   51.1676   80.2900   25.4104 H   0  0  0  0  0  0  0  0  0  0  0  0
   54.0105   81.3462   25.7195 H   0  0  0  0  0  0  0  0  0  0  0  0
   52.7438   81.2619   27.0093 H   0  0  0  0  0  0  0  0  0  0  0  0
   55.5726   80.9936   26.0077 H   0  0  0  0  0  0  0  0  0  0  0  0
   57.7581   80.9338   27.1806 H   0  0  0  0  0  0  0  0  0  0  0  0
   57.6247   79.4538   31.7042 H   0  0  0  0  0  0  0  0  0  0  0  0
  1  2  1  0
  2  3  1  0
  3  4  2  0
  4  5  1  0
  5  6  1  0
  5  7  2  0
  7  8  1  0
  8  9  1  0
  9 10  1  0
 10 11  2  0
 11 12  1  0
 12 13  1  0
 13 14  1  0
 14 15  1  0
 15 16  1  0
 16 17  1  0
 17 18  1  0
 12 19  2  0
 19 20  1  0
  7 21  1  0
 21  2  2  0
 20  9  2  0
 18 13  1  0
  1 22  1  0
  1 23  1  0
  1 24  1  0
  3 25  1  0
  4 26  1  0
  8 27  1  0
  8 28  1  0
 10 29  1  0
 11 30  1  0
 14 31  1  0
 14 32  1  0
 15 33  1  0
 15 34  1  0
 16 35  1  0
 17 36  1  0
 17 37  1  0
 18 38  1  0
 18 39  1  0
 19 40  1  0
 20 41  1  0
 21 42  1  0
M  END
>  <meeko>  (1) 
{"is_sidechain": false}

>  <smiles>  (1) 
Cc1ccc(F)c(Cc2ccc(N3CCNCC3)cc2)c1

>  <vina_score>  (1) 
-8.433

>  <job_id>  (1) 
e45dc583f184b9f3

$$$$
