
     RDKit          3D

 60 63  0  0  0  0  0  0  0  0999 V2000
   59.1180   82.8970   30.3100 C   0  0  0  0  0  0  0  0  0  0  0  0
   58.9610   81.6860   29.3850 C   0  0  0  0  0  0  0  0  0  0  0  0
   60.0600   81.7320   28.3950 N   0  0  0  0  0  0  0  0  0  0  0  0
   58.9320   80.3420   30.1890 C   0  0  2  0  0  0  0  0  0  0  0  0
   57.7980   79.4850   29.7460 N   0  0  0  0  0  0  0  0  0  0  0  0
   57.8940   79.0880   28.5700 N   0  0  0  0  0  0  0  0  0  0  0  0
   56.7910   78.3130   28.2010 O   0  0  0  0  0  0  0  0  0  0  0  0
   55.9350   78.1720   29.3350 C   0  0  0  0  0  0  0  0  0  0  0  0
   54.6070   77.5480   28.9190 C   0  0  0  0  0  0  0  0  0  0  0  0
   53.9610   78.3140   27.8320 C   0  0  0  0  0  0  0  0  0  0  0  0
   53.3100   77.9820   26.6670 C   0  0  0  0  0  0  0  0  0  0  0  0
   52.9050   79.1210   26.0190 N   0  0  0  0  0  0  0  0  0  0  0  0
   53.3150   80.0880   26.8090 C   0  0  0  0  0  0  0  0  0  0  0  0
   53.9670   79.6780   27.9320 O   0  0  0  0  0  0  0  0  0  0  0  0
   58.9890   80.4930   31.7070 C   0  0  0  0  0  0  0  0  0  0  0  0
   57.8610   80.8520   32.4590 C   0  0  0  0  0  0  0  0  0  0  0  0
   57.9110   80.9820   33.8530 C   0  0  0  0  0  0  0  0  0  0  0  0
   59.1370   80.7430   34.4820 C   0  0  0  0  0  0  0  0  0  0  0  0
   59.4750   80.7890   35.8180 N   0  0  0  0  0  0  0  0  0  0  0  0
   60.8000   80.4710   35.9940 C   0  0  0  0  0  0  0  0  0  0  0  0
   61.3720   80.4300   37.1950 O   0  0  0  0  0  0  0  0  0  0  0  0
   61.3200   80.2520   34.7380 C   0  0  0  0  0  0  0  0  0  0  0  0
   62.6430   79.8870   34.4470 N   0  0  0  0  0  0  0  0  0  0  0  0
   63.4350   80.6820   33.8770 N   0  0  0  0  0  0  0  0  0  0  0  0
   63.0390   82.0140   33.6490 C   0  0  0  0  0  0  0  0  0  0  0  0
   62.9350   82.9190   34.7140 C   0  0  0  0  0  0  0  0  0  0  0  0
   62.5580   84.2450   34.4880 C   0  0  0  0  0  0  0  0  0  0  0  0
   62.3090   84.6730   33.1810 C   0  0  0  0  0  0  0  0  0  0  0  0
   61.7820   86.3370   32.8960 S   0  0  0  0  0  0  0  0  0  0  0  0
   60.7740   86.1590   31.5670 N   0  0  0  0  0  0  0  0  0  0  0  0
   62.9090   87.1190   32.4420 O   0  0  0  0  0  0  0  0  0  0  0  0
   60.9340   86.7620   33.9850 O   0  0  0  0  0  0  0  0  0  0  0  0
   62.4270   83.7900   32.1050 C   0  0  0  0  0  0  0  0  0  0  0  0
   62.8070   82.4670   32.3440 C   0  0  0  0  0  0  0  0  0  0  0  0
   60.2830   80.3830   33.7760 C   0  0  0  0  0  0  0  0  0  0  0  0
   60.2030   80.2420   32.3750 C   0  0  0  0  0  0  0  0  0  0  0  0
   59.0751   82.5658   31.3581 H   0  0  0  0  0  0  0  0  0  0  0  0
   60.0865   83.3819   30.1181 H   0  0  0  0  0  0  0  0  0  0  0  0
   58.3051   83.6128   30.1181 H   0  0  0  0  0  0  0  0  0  0  0  0
   57.9947   81.7286   28.8611 H   0  0  0  0  0  0  0  0  0  0  0  0
   60.4780   82.6650   28.4400 H   0  0  0  0  0  0  0  0  0  0  0  0
   59.6740   81.6610   27.4540 H   0  0  0  0  0  0  0  0  0  0  0  0
   59.8754   79.8323   29.9436 H   0  0  0  0  0  0  0  0  0  0  0  0
   56.4224   77.5258   30.0799 H   0  0  0  0  0  0  0  0  0  0  0  0
   55.7447   79.1658   29.7665 H   0  0  0  0  0  0  0  0  0  0  0  0
   54.7890   76.5203   28.5717 H   0  0  0  0  0  0  0  0  0  0  0  0
   53.9359   77.5559   29.7905 H   0  0  0  0  0  0  0  0  0  0  0  0
   53.1396   76.9562   26.3084 H   0  0  0  0  0  0  0  0  0  0  0  0
   53.1441   81.1502   26.5799 H   0  0  0  0  0  0  0  0  0  0  0  0
   56.9094   81.0369   31.9392 H   0  0  0  0  0  0  0  0  0  0  0  0
   57.0184   81.2619   34.4318 H   0  0  0  0  0  0  0  0  0  0  0  0
   58.8250   81.0210   36.5530 H   0  0  0  0  0  0  0  0  0  0  0  0
   61.6670   79.5270   37.3960 H   0  0  0  0  0  0  0  0  0  0  0  0
   63.1524   82.5818   35.7382 H   0  0  0  0  0  0  0  0  0  0  0  0
   62.4581   84.9453   35.3303 H   0  0  0  0  0  0  0  0  0  0  0  0
   60.7650   85.1830   31.2650 H   0  0  0  0  0  0  0  0  0  0  0  0
   59.8480   86.5330   31.7780 H   0  0  0  0  0  0  0  0  0  0  0  0
   62.2228   84.1329   31.0799 H   0  0  0  0  0  0  0  0  0  0  0  0
   62.9253   81.7736   31.4983 H   0  0  0  0  0  0  0  0  0  0  0  0
   61.0910   79.9352   31.8028 H   0  0  0  0  0  0  0  0  0  0  0  0
  1  2  1  0
  2  3  1  0
  2  4  1  0
  4  5  1  0
  5  6  2  3
  6  7  1  0
  7  8  1  0
  8  9  1  0
  9 10  1  0
 10 11  2  0
 11 12  1  0
 12 13  2  0
 13 14  1  0
  4 15  1  0
 15 16  2  0
 16 17  1  0
 17 18  2  0
 18 19  1  0
 19 20  1  0
 20 21  1  0
 20 22  2  0
 22 23  1  0
 23 24  2  3
 24 25  1  0
 25 26  1  0
 26 27  2  0
 27 28  1  0
 28 29  1  0
 29 30  1  0
 29 31  2  0
 29 32  2  0
 28 33  2  0
 33 34  1  0
 22 35  1  0
 35 36  2  0
 14 10  1  0
 36 15  1  0
 35 18  1  0
 34 25  2  0
  1 37  1  0
  1 38  1  0
  1 39  1  0
  2 40  1  0
  3 41  1  0
  3 42  1  0
  4 43  1  6
  8 44  1  0
  8 45  1  0
  9 46  1  0
  9 47  1  0
 11 48  1  0
 13 49  1  0
 16 50  1  0
 17 51  1  0
 19 52  1  0
 21 53  1  0
 26 54  1  0
 27 55  1  0
 30 56  1  0
 30 57  1  0
 33 58  1  0
 34 59  1  0
 36 60  1  0
M  END
>  <meeko>  (1) 
{"is_sidechain": false}

>  <smiles>  (1) 
CC(N)[C@H](N=NOCCc1cnco1)c1ccc2[nH]c(O)c(N=Nc3ccc(S(N)(=O)=O)cc3)c2c1

>  <vina_score>  (1) 
-6.929

>  <job_id>  (1) 
e4a70d5ec076c89b

$$$$
