
     RDKit          3D

 39 40  0  0  0  0  0  0  0  0999 V2000
   59.5640   80.6530   29.2960 C   0  0  0  0  0  0  0  0  0  0  0  0
   58.1790   80.3930   29.8910 C   0  0  0  0  0  0  0  0  0  0  0  0
   58.2920   80.2310   31.4090 C   0  0  0  0  0  0  0  0  0  0  0  0
   57.5470   79.1550   29.2230 C   0  0  0  0  0  0  0  0  0  0  0  0
   56.5710   79.4880   28.1200 C   0  0  0  0  0  0  0  0  0  0  0  0
   56.8190   80.5520   27.2470 C   0  0  0  0  0  0  0  0  0  0  0  0
   55.9120   80.8630   26.2290 C   0  0  0  0  0  0  0  0  0  0  0  0
   54.7340   80.1200   26.0560 C   0  0  0  0  0  0  0  0  0  0  0  0
   53.7790   80.4490   24.9850 C   0  0  0  0  0  0  0  0  0  0  0  0
   53.3840   81.7800   24.7530 C   0  0  0  0  0  0  0  0  0  0  0  0
   52.4790   82.0980   23.7370 C   0  0  0  0  0  0  0  0  0  0  0  0
   51.9500   81.0790   22.9440 C   0  0  0  0  0  0  0  0  0  0  0  0
   50.8290   81.4770   21.6370 S   0  0  0  0  0  0  0  0  0  0  0  0
   49.3570   80.9900   22.2790 N   0  0  0  0  0  0  0  0  0  0  0  0
   51.0780   80.6070   20.5120 O   0  0  0  0  0  0  0  0  0  0  0  0
   50.7450   82.9130   21.5000 O   0  0  0  0  0  0  0  0  0  0  0  0
   52.3330   79.7520   23.1440 C   0  0  0  0  0  0  0  0  0  0  0  0
   53.2400   79.4440   24.1630 C   0  0  0  0  0  0  0  0  0  0  0  0
   54.4940   79.0540   26.9380 C   0  0  0  0  0  0  0  0  0  0  0  0
   55.4000   78.7400   27.9550 C   0  0  0  0  0  0  0  0  0  0  0  0
   60.2925   80.7898   30.1088 H   0  0  0  0  0  0  0  0  0  0  0  0
   59.8635   79.7954   28.6757 H   0  0  0  0  0  0  0  0  0  0  0  0
   59.5320   81.5608   28.6757 H   0  0  0  0  0  0  0  0  0  0  0  0
   57.5182   81.2501   29.6943 H   0  0  0  0  0  0  0  0  0  0  0  0
   57.7307   81.0357   31.9064 H   0  0  0  0  0  0  0  0  0  0  0  0
   57.8766   79.2566   31.7057 H   0  0  0  0  0  0  0  0  0  0  0  0
   59.3499   80.2843   31.7057 H   0  0  0  0  0  0  0  0  0  0  0  0
   58.3542   78.5406   28.7977 H   0  0  0  0  0  0  0  0  0  0  0  0
   56.9801   78.6252   30.0027 H   0  0  0  0  0  0  0  0  0  0  0  0
   57.7354   81.1495   27.3621 H   0  0  0  0  0  0  0  0  0  0  0  0
   56.1254   81.7039   25.5527 H   0  0  0  0  0  0  0  0  0  0  0  0
   53.7947   82.5834   25.3822 H   0  0  0  0  0  0  0  0  0  0  0  0
   52.1857   83.1439   23.5636 H   0  0  0  0  0  0  0  0  0  0  0  0
   49.1440   80.0400   21.9740 H   0  0  0  0  0  0  0  0  0  0  0  0
   49.3670   81.1060   23.2930 H   0  0  0  0  0  0  0  0  0  0  0  0
   51.9248   78.9548   22.5054 H   0  0  0  0  0  0  0  0  0  0  0  0
   53.5368   78.3971   24.3241 H   0  0  0  0  0  0  0  0  0  0  0  0
   53.5775   78.4560   26.8267 H   0  0  0  0  0  0  0  0  0  0  0  0
   55.1907   77.8980   28.6312 H   0  0  0  0  0  0  0  0  0  0  0  0
  1  2  1  0
  2  3  1  0
  2  4  1  0
  4  5  1  0
  5  6  1  0
  6  7  2  0
  7  8  1  0
  8  9  1  0
  9 10  1  0
 10 11  2  0
 11 12  1  0
 12 13  1  0
 13 14  1  0
 13 15  2  0
 13 16  2  0
 12 17  2  0
 17 18  1  0
  8 19  2  0
 19 20  1  0
 20  5  2  0
 18  9  2  0
  1 21  1  0
  1 22  1  0
  1 23  1  0
  2 24  1  0
  3 25  1  0
  3 26  1  0
  3 27  1  0
  4 28  1  0
  4 29  1  0
  6 30  1  0
  7 31  1  0
 10 32  1  0
 11 33  1  0
 14 34  1  0
 14 35  1  0
 17 36  1  0
 18 37  1  0
 19 38  1  0
 20 39  1  0
M  END
>  <meeko>  (1) 
{"is_sidechain": false}

>  <smiles>  (1) 
CC(C)Cc1ccc(-c2ccc(S(N)(=O)=O)cc2)cc1

>  <vina_score>  (1) 
-8.033

>  <job_id>  (1) 
e4ca06dc59b47525

$$$$
