
     RDKit          3D

 37 38  0  0  0  0  0  0  0  0999 V2000
   51.9220   75.4820   26.2500 C   0  0  0  0  0  0  0  0  0  0  0  0
   52.7210   75.6500   27.5160 C   0  0  0  0  0  0  0  0  0  0  0  0
   53.3100   74.6940   28.0200 O   0  0  0  0  0  0  0  0  0  0  0  0
   52.6830   77.0280   28.1540 C   0  0  0  0  0  0  0  0  0  0  0  0
   54.0500   77.6460   28.3600 C   0  0  0  0  0  0  0  0  0  0  0  0
   54.8100   77.2470   29.4750 C   0  0  0  0  0  0  0  0  0  0  0  0
   56.0750   77.7860   29.7070 C   0  0  0  0  0  0  0  0  0  0  0  0
   56.6010   78.7270   28.8290 C   0  0  0  0  0  0  0  0  0  0  0  0
   55.8630   79.1260   27.7140 C   0  0  0  0  0  0  0  0  0  0  0  0
   54.5860   78.5940   27.4590 C   0  0  0  0  0  0  0  0  0  0  0  0
   53.8590   79.0420   26.2650 C   0  0  0  0  0  0  0  0  0  0  0  0
   53.0060   80.1520   26.3170 C   0  0  0  0  0  0  0  0  0  0  0  0
   52.3210   80.5890   25.1760 C   0  0  0  0  0  0  0  0  0  0  0  0
   52.4690   79.9200   23.9620 C   0  0  0  0  0  0  0  0  0  0  0  0
   51.8160   80.2930   22.7700 N   0  0  0  0  0  0  0  0  0  0  0  0
   51.8830   81.5110   22.1190 C   0  0  0  0  0  0  0  0  0  0  0  0
   51.0280   81.5430   20.8750 C   0  0  0  0  0  0  0  0  0  0  0  0
   52.5600   82.4820   22.4370 O   0  0  0  0  0  0  0  0  0  0  0  0
   53.3100   78.8020   23.9070 C   0  0  0  0  0  0  0  0  0  0  0  0
   53.9980   78.3670   25.0460 C   0  0  0  0  0  0  0  0  0  0  0  0
   50.8746   75.2618   26.5039 H   0  0  0  0  0  0  0  0  0  0  0  0
   51.9692   76.4097   25.6608 H   0  0  0  0  0  0  0  0  0  0  0  0
   52.3388   74.6519   25.6608 H   0  0  0  0  0  0  0  0  0  0  0  0
   52.0958   77.6942   27.5049 H   0  0  0  0  0  0  0  0  0  0  0  0
   52.2338   76.9064   29.1507 H   0  0  0  0  0  0  0  0  0  0  0  0
   54.4012   76.5008   30.1722 H   0  0  0  0  0  0  0  0  0  0  0  0
   56.6566   77.4668   30.5844 H   0  0  0  0  0  0  0  0  0  0  0  0
   57.5970   79.1561   29.0130 H   0  0  0  0  0  0  0  0  0  0  0  0
   56.2870   79.8692   27.0227 H   0  0  0  0  0  0  0  0  0  0  0  0
   52.8721   80.6884   27.2680 H   0  0  0  0  0  0  0  0  0  0  0  0
   51.6612   81.4669   25.2384 H   0  0  0  0  0  0  0  0  0  0  0  0
   51.2440   79.5780   22.3370 H   0  0  0  0  0  0  0  0  0  0  0  0
   49.9665   81.5827   21.1606 H   0  0  0  0  0  0  0  0  0  0  0  0
   51.2809   82.4323   20.2790 H   0  0  0  0  0  0  0  0  0  0  0  0
   51.2137   80.6373   20.2790 H   0  0  0  0  0  0  0  0  0  0  0  0
   53.4316   78.2592   22.9580 H   0  0  0  0  0  0  0  0  0  0  0  0
   54.6542   77.4864   24.9828 H   0  0  0  0  0  0  0  0  0  0  0  0
  1  2  1  0
  2  3  2  0
  2  4  1  0
  4  5  1  0
  5  6  2  0
  6  7  1  0
  7  8  2  0
  8  9  1  0
  9 10  2  0
 10 11  1  0
 11 12  1  0
 12 13  2  0
 13 14  1  0
 14 15  1  0
 15 16  1  0
 16 17  1  0
 16 18  2  0
 14 19  2  0
 19 20  1  0
 10  5  1  0
 20 11  2  0
  1 21  1  0
  1 22  1  0
  1 23  1  0
  4 24  1  0
  4 25  1  0
  6 26  1  0
  7 27  1  0
  8 28  1  0
  9 29  1  0
 12 30  1  0
 13 31  1  0
 15 32  1  0
 17 33  1  0
 17 34  1  0
 17 35  1  0
 19 36  1  0
 20 37  1  0
M  END
>  <meeko>  (1) 
{"is_sidechain": false}

>  <smiles>  (1) 
CC(=O)Cc1ccccc1-c1ccc(NC(C)=O)cc1

>  <vina_score>  (1) 
-8.494

>  <job_id>  (1) 
e5207f2b5806c345

$$$$
