
     RDKit          3D

 43 44  0  0  0  0  0  0  0  0999 V2000
   52.5620   81.3480   22.4920 C   0  0  0  0  0  0  0  0  0  0  0  0
   53.3730   80.7660   23.5310 N   0  0  0  0  0  0  0  0  0  0  0  0
   52.8210   80.4680   24.7620 C   0  0  0  0  0  0  0  0  0  0  0  0
   51.6320   80.6070   25.0200 O   0  0  0  0  0  0  0  0  0  0  0  0
   53.7660   79.9940   25.8100 C   0  0  0  0  0  0  0  0  0  0  0  0
   55.0100   80.6230   25.9210 C   0  0  0  0  0  0  0  0  0  0  0  0
   55.9210   80.2060   26.8940 C   0  0  0  0  0  0  0  0  0  0  0  0
   55.6000   79.1670   27.7730 C   0  0  0  0  0  0  0  0  0  0  0  0
   56.5840   78.8610   28.6720 O   0  0  0  0  0  0  0  0  0  0  0  0
   57.9270   79.1730   28.3050 C   0  0  0  0  0  0  0  0  0  0  0  0
   58.5650   80.0100   29.3910 C   0  0  0  0  0  0  0  0  0  0  0  0
   58.1840   79.8560   30.7340 C   0  0  0  0  0  0  0  0  0  0  0  0
   58.7550   80.6500   31.7320 C   0  0  0  0  0  0  0  0  0  0  0  0
   59.6940   81.6260   31.3900 C   0  0  0  0  0  0  0  0  0  0  0  0
   60.3370   82.4630   32.4310 C   0  0  0  0  0  0  0  0  0  0  0  0
   61.4290   82.0940   32.8600 O   0  0  0  0  0  0  0  0  0  0  0  0
   59.6810   83.6050   32.8860 N   0  0  0  0  0  0  0  0  0  0  0  0
   60.2500   84.3150   34.0180 C   0  0  0  0  0  0  0  0  0  0  0  0
   58.6370   84.3060   32.1510 C   0  0  0  0  0  0  0  0  0  0  0  0
   60.0930   81.7810   30.0590 C   0  0  0  0  0  0  0  0  0  0  0  0
   59.5220   80.9840   29.0640 C   0  0  0  0  0  0  0  0  0  0  0  0
   54.3530   78.5500   27.6750 C   0  0  0  0  0  0  0  0  0  0  0  0
   53.4350   78.9640   26.7000 C   0  0  0  0  0  0  0  0  0  0  0  0
   51.7480   81.9321   22.9461 H   0  0  0  0  0  0  0  0  0  0  0  0
   53.1831   82.0078   21.8683 H   0  0  0  0  0  0  0  0  0  0  0  0
   52.1358   80.5484   21.8683 H   0  0  0  0  0  0  0  0  0  0  0  0
   54.3740   80.8900   23.4680 H   0  0  0  0  0  0  0  0  0  0  0  0
   55.2714   81.4473   25.2411 H   0  0  0  0  0  0  0  0  0  0  0  0
   56.9010   80.6999   26.9696 H   0  0  0  0  0  0  0  0  0  0  0  0
   58.4979   78.2415   28.1769 H   0  0  0  0  0  0  0  0  0  0  0  0
   57.9274   79.7362   27.3601 H   0  0  0  0  0  0  0  0  0  0  0  0
   57.4286   79.1029   31.0029 H   0  0  0  0  0  0  0  0  0  0  0  0
   58.4660   80.5069   32.7837 H   0  0  0  0  0  0  0  0  0  0  0  0
   59.8881   83.8635   34.9535 H   0  0  0  0  0  0  0  0  0  0  0  0
   61.3473   84.2480   33.9789 H   0  0  0  0  0  0  0  0  0  0  0  0
   59.9456   85.3713   33.9789 H   0  0  0  0  0  0  0  0  0  0  0  0
   57.9397   84.7742   32.8613 H   0  0  0  0  0  0  0  0  0  0  0  0
   59.0921   85.0823   31.5183 H   0  0  0  0  0  0  0  0  0  0  0  0
   58.0908   83.5910   31.5183 H   0  0  0  0  0  0  0  0  0  0  0  0
   60.8552   82.5292   29.7958 H   0  0  0  0  0  0  0  0  0  0  0  0
   59.8247   81.1206   28.0153 H   0  0  0  0  0  0  0  0  0  0  0  0
   54.0889   77.7354   28.3655 H   0  0  0  0  0  0  0  0  0  0  0  0
   52.4504   78.4780   26.6334 H   0  0  0  0  0  0  0  0  0  0  0  0
  1  2  1  0
  2  3  1  0
  3  4  2  0
  3  5  1  0
  5  6  1  0
  6  7  2  0
  7  8  1  0
  8  9  1  0
  9 10  1  0
 10 11  1  0
 11 12  1  0
 12 13  2  0
 13 14  1  0
 14 15  1  0
 15 16  2  0
 15 17  1  0
 17 18  1  0
 17 19  1  0
 14 20  2  0
 20 21  1  0
  8 22  2  0
 22 23  1  0
 23  5  2  0
 21 11  2  0
  1 24  1  0
  1 25  1  0
  1 26  1  0
  2 27  1  0
  6 28  1  0
  7 29  1  0
 10 30  1  0
 10 31  1  0
 12 32  1  0
 13 33  1  0
 18 34  1  0
 18 35  1  0
 18 36  1  0
 19 37  1  0
 19 38  1  0
 19 39  1  0
 20 40  1  0
 21 41  1  0
 22 42  1  0
 23 43  1  0
M  END
>  <meeko>  (1) 
{"is_sidechain": false}

>  <smiles>  (1) 
CNC(=O)c1ccc(OCc2ccc(C(=O)N(C)C)cc2)cc1

>  <vina_score>  (1) 
-8.092

>  <job_id>  (1) 
e5431fdcbe009a06

$$$$
