
     RDKit          3D

 40 42  0  0  0  0  0  0  0  0999 V2000
   52.0240   76.3450   28.0200 Cl  0  0  0  0  0  0  0  0  0  0  0  0
   53.3950   77.3800   27.9330 C   0  0  0  0  0  0  0  0  0  0  0  0
   54.4350   77.2320   28.8430 C   0  0  0  0  0  0  0  0  0  0  0  0
   55.5470   78.0770   28.7640 C   0  0  0  0  0  0  0  0  0  0  0  0
   55.6270   79.0960   27.8010 C   0  0  0  0  0  0  0  0  0  0  0  0
   56.7940   79.8580   27.7370 N   0  0  0  0  0  0  0  0  0  0  0  0
   58.0630   79.2840   28.1670 C   0  0  0  0  0  0  0  0  0  0  0  0
   58.6000   80.0820   29.3310 C   0  0  0  0  0  0  0  0  0  0  0  0
   59.5640   81.0730   29.1450 C   0  0  0  0  0  0  0  0  0  0  0  0
   60.0460   81.8130   30.2340 C   0  0  0  0  0  0  0  0  0  0  0  0
   59.5880   81.6000   31.5440 C   0  0  0  0  0  0  0  0  0  0  0  0
   60.0700   82.3330   32.6140 N   0  0  0  0  0  0  0  0  0  0  0  0
   60.0620   81.8080   33.9880 C   0  0  0  0  0  0  0  0  0  0  0  0
   61.1810   82.4680   34.8120 C   0  0  0  0  0  0  0  0  0  0  0  0
   61.0840   83.8970   34.8950 O   0  0  0  0  0  0  0  0  0  0  0  0
   60.4380   84.4870   33.7580 C   0  0  0  0  0  0  0  0  0  0  0  0
   60.6110   83.6910   32.4530 C   0  0  0  0  0  0  0  0  0  0  0  0
   58.6150   80.6030   31.7060 C   0  0  0  0  0  0  0  0  0  0  0  0
   58.1250   79.8570   30.6250 C   0  0  0  0  0  0  0  0  0  0  0  0
   54.5830   79.1960   26.8720 C   0  0  0  0  0  0  0  0  0  0  0  0
   53.4660   78.3550   26.9440 C   0  0  0  0  0  0  0  0  0  0  0  0
   54.3840   76.4554   29.6204 H   0  0  0  0  0  0  0  0  0  0  0  0
   56.3775   77.9402   29.4722 H   0  0  0  0  0  0  0  0  0  0  0  0
   56.8810   80.3650   26.8590 H   0  0  0  0  0  0  0  0  0  0  0  0
   57.9083   78.2399   28.4769 H   0  0  0  0  0  0  0  0  0  0  0  0
   58.7825   79.3135   27.3355 H   0  0  0  0  0  0  0  0  0  0  0  0
   59.9495   81.2757   28.1349 H   0  0  0  0  0  0  0  0  0  0  0  0
   60.8082   82.5860   30.0561 H   0  0  0  0  0  0  0  0  0  0  0  0
   59.0899   82.0250   34.4548 H   0  0  0  0  0  0  0  0  0  0  0  0
   60.2288   80.7211   33.9594 H   0  0  0  0  0  0  0  0  0  0  0  0
   61.1448   82.0597   35.8328 H   0  0  0  0  0  0  0  0  0  0  0  0
   62.1272   82.2442   34.2975 H   0  0  0  0  0  0  0  0  0  0  0  0
   59.3624   84.5658   33.9744 H   0  0  0  0  0  0  0  0  0  0  0  0
   60.9123   85.4663   33.5970 H   0  0  0  0  0  0  0  0  0  0  0  0
   60.0739   84.2027   31.6408 H   0  0  0  0  0  0  0  0  0  0  0  0
   61.6819   83.6256   32.2104 H   0  0  0  0  0  0  0  0  0  0  0  0
   58.2237   80.3998   32.7138 H   0  0  0  0  0  0  0  0  0  0  0  0
   57.3588   79.0868   30.7976 H   0  0  0  0  0  0  0  0  0  0  0  0
   54.6420   79.9486   26.0719 H   0  0  0  0  0  0  0  0  0  0  0  0
   52.6458   78.4653   26.2194 H   0  0  0  0  0  0  0  0  0  0  0  0
  1  2  1  0
  2  3  1  0
  3  4  2  0
  4  5  1  0
  5  6  1  0
  6  7  1  0
  7  8  1  0
  8  9  1  0
  9 10  2  0
 10 11  1  0
 11 12  1  0
 12 13  1  0
 13 14  1  0
 14 15  1  0
 15 16  1  0
 16 17  1  0
 11 18  2  0
 18 19  1  0
  5 20  2  0
 20 21  1  0
 21  2  2  0
 19  8  2  0
 17 12  1  0
  3 22  1  0
  4 23  1  0
  6 24  1  0
  7 25  1  0
  7 26  1  0
  9 27  1  0
 10 28  1  0
 13 29  1  0
 13 30  1  0
 14 31  1  0
 14 32  1  0
 16 33  1  0
 16 34  1  0
 17 35  1  0
 17 36  1  0
 18 37  1  0
 19 38  1  0
 20 39  1  0
 21 40  1  0
M  END
>  <meeko>  (1) 
{"is_sidechain": false}

>  <smiles>  (1) 
Clc1ccc(NCc2ccc(N3CCOCC3)cc2)cc1

>  <vina_score>  (1) 
-7.691

>  <job_id>  (1) 
e566c0a737071457

$$$$
