
     RDKit          3D

 57 60  0  0  0  0  0  0  0  0999 V2000
   62.3500   81.8030   33.5220 C   0  0  0  0  0  0  0  0  0  0  0  0
   61.1740   82.6500   33.7690 N   0  0  0  0  0  0  0  0  0  0  0  0
   61.2740   83.4350   35.0120 C   0  0  0  0  0  0  0  0  0  0  0  0
   60.4520   83.4120   32.4290 S   0  0  0  0  0  0  0  0  0  0  0  0
   61.5260   83.9420   31.6100 O   0  0  0  0  0  0  0  0  0  0  0  0
   59.4090   84.2990   32.8950 O   0  0  0  0  0  0  0  0  0  0  0  0
   59.7240   82.0700   31.5140 C   0  0  0  0  0  0  0  0  0  0  0  0
   60.1720   81.8790   30.1970 C   0  0  0  0  0  0  0  0  0  0  0  0
   59.6430   80.8590   29.4020 C   0  0  0  0  0  0  0  0  0  0  0  0
   58.6420   80.0200   29.8930 C   0  0  0  0  0  0  0  0  0  0  0  0
   58.0840   78.9470   29.1590 N   0  0  0  0  0  0  0  0  0  0  0  0
   56.8860   78.9570   28.4410 C   0  0  0  0  0  0  0  0  0  0  0  0
   56.5820   79.9500   27.5850 C   0  0  0  0  0  0  0  0  0  0  0  0
   55.2700   79.9070   26.8550 C   0  0  0  0  0  0  0  0  0  0  0  0
   55.0080   80.9190   25.9550 N   0  0  0  0  0  0  0  0  0  0  0  0
   53.7070   81.1070   25.3150 C   0  0  2  0  0  0  0  0  0  0  0  0
   53.4880   79.9790   24.2890 C   0  0  0  0  0  0  0  0  0  0  0  0
   52.6110   80.3870   23.0980 C   0  0  0  0  0  0  0  0  0  0  0  0
   51.5980   81.4800   23.4460 C   0  0  1  0  0  0  0  0  0  0  0  0
   50.6820   80.9820   24.4720 N   0  0  0  0  0  0  0  0  0  0  0  0
   52.3180   82.7460   23.9360 C   0  0  0  0  0  0  0  0  0  0  0  0
   53.6510   82.4810   24.6450 C   0  0  0  0  0  0  0  0  0  0  0  0
   54.3960   78.9560   27.0440 N   0  0  0  0  0  0  0  0  0  0  0  0
   54.6910   77.9820   27.9530 C   0  0  0  0  0  0  0  0  0  0  0  0
   53.9790   76.8960   28.3950 C   0  0  0  0  0  0  0  0  0  0  0  0
   52.2760   76.3330   27.8730 Br  0  0  0  0  0  0  0  0  0  0  0  0
   54.7740   76.2650   29.3490 C   0  0  0  0  0  0  0  0  0  0  0  0
   55.9380   76.8890   29.5280 N   0  0  0  0  0  0  0  0  0  0  0  0
   55.9040   77.9510   28.6570 N   0  0  0  0  0  0  0  0  0  0  0  0
   58.1880   80.2320   31.2030 C   0  0  0  0  0  0  0  0  0  0  0  0
   58.7130   81.2510   32.0150 C   0  0  0  0  0  0  0  0  0  0  0  0
   58.0500   81.3510   33.6050 Cl  0  0  0  0  0  0  0  0  0  0  0  0
   62.7847   81.4899   34.4827 H   0  0  0  0  0  0  0  0  0  0  0  0
   62.0477   80.9139   32.9492 H   0  0  0  0  0  0  0  0  0  0  0  0
   63.0975   82.3715   32.9492 H   0  0  0  0  0  0  0  0  0  0  0  0
   61.1883   82.7625   35.8783 H   0  0  0  0  0  0  0  0  0  0  0  0
   62.2451   83.9508   35.0428 H   0  0  0  0  0  0  0  0  0  0  0  0
   60.4632   84.1777   35.0428 H   0  0  0  0  0  0  0  0  0  0  0  0
   60.9489   82.5405   29.7861 H   0  0  0  0  0  0  0  0  0  0  0  0
   60.0196   80.7159   28.3784 H   0  0  0  0  0  0  0  0  0  0  0  0
   58.2750   78.0630   29.6240 H   0  0  0  0  0  0  0  0  0  0  0  0
   57.2841   80.7810   27.4223 H   0  0  0  0  0  0  0  0  0  0  0  0
   55.5760   81.7550   26.0130 H   0  0  0  0  0  0  0  0  0  0  0  0
   52.9049   81.0648   26.0666 H   0  0  0  0  0  0  0  0  0  0  0  0
   54.4695   79.6640   23.9051 H   0  0  0  0  0  0  0  0  0  0  0  0
   52.9605   79.1679   24.8123 H   0  0  0  0  0  0  0  0  0  0  0  0
   53.2633   80.7573   22.2934 H   0  0  0  0  0  0  0  0  0  0  0  0
   52.0416   79.4978   22.7897 H   0  0  0  0  0  0  0  0  0  0  0  0
   51.0247   81.7424   22.5446 H   0  0  0  0  0  0  0  0  0  0  0  0
   49.7230   81.2380   24.2370 H   0  0  0  0  0  0  0  0  0  0  0  0
   50.7070   79.9630   24.4950 H   0  0  0  0  0  0  0  0  0  0  0  0
   52.5131   83.3897   23.0656 H   0  0  0  0  0  0  0  0  0  0  0  0
   51.6559   83.2171   24.6774 H   0  0  0  0  0  0  0  0  0  0  0  0
   54.4612   82.5430   23.9035 H   0  0  0  0  0  0  0  0  0  0  0  0
   53.7602   83.2380   25.4356 H   0  0  0  0  0  0  0  0  0  0  0  0
   54.4755   75.3562   29.8921 H   0  0  0  0  0  0  0  0  0  0  0  0
   57.3979   79.5815   31.6063 H   0  0  0  0  0  0  0  0  0  0  0  0
  1  2  1  0
  2  3  1  0
  2  4  1  0
  4  5  2  0
  4  6  2  0
  4  7  1  0
  7  8  1  0
  8  9  2  0
  9 10  1  0
 10 11  1  0
 11 12  1  0
 12 13  2  0
 13 14  1  0
 14 15  1  0
 15 16  1  0
 16 17  1  0
 17 18  1  0
 18 19  1  0
 19 20  1  0
 19 21  1  0
 21 22  1  0
 14 23  2  0
 23 24  1  0
 24 25  2  0
 25 26  1  0
 25 27  1  0
 27 28  2  0
 28 29  1  0
 10 30  2  0
 30 31  1  0
 31 32  1  0
 31  7  2  0
 29 12  1  0
 22 16  1  0
 29 24  1  0
  1 33  1  0
  1 34  1  0
  1 35  1  0
  3 36  1  0
  3 37  1  0
  3 38  1  0
  8 39  1  0
  9 40  1  0
 11 41  1  0
 13 42  1  0
 15 43  1  0
 16 44  1  6
 17 45  1  0
 17 46  1  0
 18 47  1  0
 18 48  1  0
 19 49  1  1
 20 50  1  0
 20 51  1  0
 21 52  1  0
 21 53  1  0
 22 54  1  0
 22 55  1  0
 27 56  1  0
 30 57  1  0
M  END
>  <meeko>  (1) 
{"is_sidechain": false}

>  <smiles>  (1) 
CN(C)S(=O)(=O)c1ccc(Nc2cc(N[C@H]3CC[C@H](N)CC3)nc3c(Br)cnn23)cc1Cl

>  <vina_score>  (1) 
-9.404

>  <job_id>  (1) 
e5c68d2af801695a

$$$$
