
     RDKit          3D

 46 48  0  0  0  0  0  0  0  0999 V2000
   58.1860   83.2510   32.0930 C   0  0  0  0  0  0  0  0  0  0  0  0
   58.7560   81.8270   32.2040 C   0  0  0  0  0  0  0  0  0  0  0  0
   60.1360   81.8830   32.8870 C   0  0  0  0  0  0  0  0  0  0  0  0
   57.8130   80.9820   33.0790 C   0  0  0  0  0  0  0  0  0  0  0  0
   58.8850   81.2350   30.8300 C   0  0  0  0  0  0  0  0  0  0  0  0
   59.5280   81.5800   29.6620 C   0  0  0  0  0  0  0  0  0  0  0  0
   59.3110   80.6270   28.6990 N   0  0  0  0  0  0  0  0  0  0  0  0
   58.5530   79.7350   29.3050 C   0  0  0  0  0  0  0  0  0  0  0  0
   57.9880   78.4690   28.7730 C   0  0  0  0  0  0  0  0  0  0  0  0
   56.5270   78.5970   28.4390 C   0  0  0  0  0  0  0  0  0  0  0  0
   56.1670   79.5620   27.5540 N   0  0  0  0  0  0  0  0  0  0  0  0
   54.8590   79.7070   27.2700 C   0  0  0  0  0  0  0  0  0  0  0  0
   54.4180   80.7050   26.3770 N   0  0  0  0  0  0  0  0  0  0  0  0
   54.3270   82.0810   26.7090 N   0  0  0  0  0  0  0  0  0  0  0  0
   53.0170   82.6720   26.3810 C   0  0  0  0  0  0  0  0  0  0  0  0
   53.1060   83.8260   25.3690 C   0  0  0  0  0  0  0  0  0  0  0  0
   54.0120   84.8620   25.7710 O   0  0  0  0  0  0  0  0  0  0  0  0
   55.1850   84.3650   26.4310 C   0  0  0  0  0  0  0  0  0  0  0  0
   55.4530   82.8710   26.1900 C   0  0  0  0  0  0  0  0  0  0  0  0
   53.8960   78.9380   27.8060 N   0  0  0  0  0  0  0  0  0  0  0  0
   54.2880   77.9860   28.6800 C   0  0  0  0  0  0  0  0  0  0  0  0
   55.5960   77.7770   29.0350 C   0  0  0  0  0  0  0  0  0  0  0  0
   55.9370   76.8150   29.9010 F   0  0  0  0  0  0  0  0  0  0  0  0
   58.2510   80.0420   30.6020 O   0  0  0  0  0  0  0  0  0  0  0  0
   58.0223   83.6600   33.1009 H   0  0  0  0  0  0  0  0  0  0  0  0
   58.8978   83.8895   31.5493 H   0  0  0  0  0  0  0  0  0  0  0  0
   57.2302   83.2220   31.5493 H   0  0  0  0  0  0  0  0  0  0  0  0
   60.0051   81.8777   33.9792 H   0  0  0  0  0  0  0  0  0  0  0  0
   60.7305   81.0082   32.5847 H   0  0  0  0  0  0  0  0  0  0  0  0
   60.6577   82.8031   32.5847 H   0  0  0  0  0  0  0  0  0  0  0  0
   58.0274   81.1742   34.1406 H   0  0  0  0  0  0  0  0  0  0  0  0
   56.7694   81.2529   32.8609 H   0  0  0  0  0  0  0  0  0  0  0  0
   57.9682   79.9151   32.8609 H   0  0  0  0  0  0  0  0  0  0  0  0
   60.1298   82.4899   29.5212 H   0  0  0  0  0  0  0  0  0  0  0  0
   58.5371   78.1912   27.8613 H   0  0  0  0  0  0  0  0  0  0  0  0
   58.0910   77.6989   29.5516 H   0  0  0  0  0  0  0  0  0  0  0  0
   53.6160   80.3120   25.8860 H   0  0  0  0  0  0  0  0  0  0  0  0
   52.3753   81.8852   25.9577 H   0  0  0  0  0  0  0  0  0  0  0  0
   52.6047   83.0870   27.3125 H   0  0  0  0  0  0  0  0  0  0  0  0
   53.4453   83.4198   24.4047 H   0  0  0  0  0  0  0  0  0  0  0  0
   52.1050   84.2767   25.2987 H   0  0  0  0  0  0  0  0  0  0  0  0
   56.0533   84.9349   26.0686 H   0  0  0  0  0  0  0  0  0  0  0  0
   55.0181   84.4879   27.5113 H   0  0  0  0  0  0  0  0  0  0  0  0
   55.5630   82.6876   25.1110 H   0  0  0  0  0  0  0  0  0  0  0  0
   56.3774   82.5761   26.7082 H   0  0  0  0  0  0  0  0  0  0  0  0
   53.5170   77.3440   29.1311 H   0  0  0  0  0  0  0  0  0  0  0  0
  1  2  1  0
  2  3  1  0
  2  4  1  0
  2  5  1  0
  5  6  2  0
  6  7  1  0
  7  8  2  0
  8  9  1  0
  9 10  1  0
 10 11  2  0
 11 12  1  0
 12 13  1  0
 13 14  1  0
 14 15  1  0
 15 16  1  0
 16 17  1  0
 17 18  1  0
 18 19  1  0
 12 20  2  0
 20 21  1  0
 21 22  2  0
 22 23  1  0
  8 24  1  0
 24  5  1  0
 22 10  1  0
 19 14  1  0
  1 25  1  0
  1 26  1  0
  1 27  1  0
  3 28  1  0
  3 29  1  0
  3 30  1  0
  4 31  1  0
  4 32  1  0
  4 33  1  0
  6 34  1  0
  9 35  1  0
  9 36  1  0
 13 37  1  0
 15 38  1  0
 15 39  1  0
 16 40  1  0
 16 41  1  0
 18 42  1  0
 18 43  1  0
 19 44  1  0
 19 45  1  0
 21 46  1  0
M  END
>  <meeko>  (1) 
{"is_sidechain": false}

>  <smiles>  (1) 
CC(C)(C)c1cnc(Cc2nc(NN3CCOCC3)ncc2F)o1

>  <vina_score>  (1) 
-7.607

>  <job_id>  (1) 
e5e5e82b2fb9278c

$$$$
