
     RDKit          3D

 39 41  0  0  0  0  0  0  0  0999 V2000
   58.1040   79.1260   27.9650 O   0  0  0  0  0  0  0  0  0  0  0  0
   57.7890   79.3260   29.1320 C   0  0  0  0  0  0  0  0  0  0  0  0
   56.6850   78.8170   29.7930 N   0  0  0  0  0  0  0  0  0  0  0  0
   55.6490   78.0320   29.2470 C   0  0  0  0  0  0  0  0  0  0  0  0
   55.4890   76.6660   29.4990 C   0  0  0  0  0  0  0  0  0  0  0  0
   54.4340   75.9550   28.9130 C   0  0  0  0  0  0  0  0  0  0  0  0
   53.5380   76.6070   28.0710 C   0  0  0  0  0  0  0  0  0  0  0  0
   52.2440   75.7320   27.3510 Cl  0  0  0  0  0  0  0  0  0  0  0  0
   53.6870   77.9660   27.8090 C   0  0  0  0  0  0  0  0  0  0  0  0
   54.7400   78.6750   28.3950 C   0  0  0  0  0  0  0  0  0  0  0  0
   58.6890   80.1640   29.9730 C   0  0  0  0  0  0  0  0  0  0  0  0
   59.6690   80.9860   29.4160 C   0  0  0  0  0  0  0  0  0  0  0  0
   60.4930   81.7570   30.2500 C   0  0  0  0  0  0  0  0  0  0  0  0
   60.3740   81.7320   31.6500 C   0  0  0  0  0  0  0  0  0  0  0  0
   61.1870   82.5040   32.4590 N   0  0  0  0  0  0  0  0  0  0  0  0
   60.8570   82.7800   33.8680 C   0  0  0  0  0  0  0  0  0  0  0  0
   61.5660   84.0630   34.3330 C   0  0  0  0  0  0  0  0  0  0  0  0
   62.9970   84.0140   34.2290 O   0  0  0  0  0  0  0  0  0  0  0  0
   63.4600   83.1230   33.2060 C   0  0  0  0  0  0  0  0  0  0  0  0
   62.5020   82.9910   32.0090 C   0  0  0  0  0  0  0  0  0  0  0  0
   59.3880   80.8840   32.1780 C   0  0  0  0  0  0  0  0  0  0  0  0
   58.5600   80.1040   31.3600 C   0  0  0  0  0  0  0  0  0  0  0  0
   56.6460   78.9620   30.7930 H   0  0  0  0  0  0  0  0  0  0  0  0
   56.1964   76.1462   30.1619 H   0  0  0  0  0  0  0  0  0  0  0  0
   54.3136   74.8811   29.1184 H   0  0  0  0  0  0  0  0  0  0  0  0
   52.9786   78.4805   27.1431 H   0  0  0  0  0  0  0  0  0  0  0  0
   54.8565   79.7485   28.1854 H   0  0  0  0  0  0  0  0  0  0  0  0
   59.7956   81.0297   28.3242 H   0  0  0  0  0  0  0  0  0  0  0  0
   61.2575   82.4024   29.7927 H   0  0  0  0  0  0  0  0  0  0  0  0
   59.7691   82.9080   33.9690 H   0  0  0  0  0  0  0  0  0  0  0  0
   61.1928   81.9366   34.4893 H   0  0  0  0  0  0  0  0  0  0  0  0
   61.2037   84.8999   33.7179 H   0  0  0  0  0  0  0  0  0  0  0  0
   61.3302   84.1860   35.4004 H   0  0  0  0  0  0  0  0  0  0  0  0
   64.4269   83.4945   32.8356 H   0  0  0  0  0  0  0  0  0  0  0  0
   63.5360   82.1257   33.6637 H   0  0  0  0  0  0  0  0  0  0  0  0
   62.3808   83.9742   31.5309 H   0  0  0  0  0  0  0  0  0  0  0  0
   62.9234   82.2724   31.2906 H   0  0  0  0  0  0  0  0  0  0  0  0
   59.2612   80.8301   33.2693 H   0  0  0  0  0  0  0  0  0  0  0  0
   57.8066   79.4429   31.8130 H   0  0  0  0  0  0  0  0  0  0  0  0
  1  2  2  0
  2  3  1  0
  3  4  1  0
  4  5  1  0
  5  6  2  0
  6  7  1  0
  7  8  1  0
  7  9  2  0
  9 10  1  0
  2 11  1  0
 11 12  1  0
 12 13  2  0
 13 14  1  0
 14 15  1  0
 15 16  1  0
 16 17  1  0
 17 18  1  0
 18 19  1  0
 19 20  1  0
 14 21  2  0
 21 22  1  0
 10  4  2  0
 22 11  2  0
 20 15  1  0
  3 23  1  0
  5 24  1  0
  6 25  1  0
  9 26  1  0
 10 27  1  0
 12 28  1  0
 13 29  1  0
 16 30  1  0
 16 31  1  0
 17 32  1  0
 17 33  1  0
 19 34  1  0
 19 35  1  0
 20 36  1  0
 20 37  1  0
 21 38  1  0
 22 39  1  0
M  END
>  <meeko>  (1) 
{"is_sidechain": false}

>  <smiles>  (1) 
O=C(Nc1ccc(Cl)cc1)c1ccc(N2CCOCC2)cc1

>  <vina_score>  (1) 
-7.998

>  <job_id>  (1) 
e618f4cfbdfd4684

$$$$
