
     RDKit          3D

 38 39  0  0  0  0  0  0  0  0999 V2000
   55.8890   77.5180   29.5190 C   0  0  0  0  0  0  0  0  0  0  0  0
   56.6490   78.4450   28.5580 C   0  0  0  0  0  0  0  0  0  0  0  0
   57.6440   79.3980   29.2200 C   0  0  0  0  0  0  0  0  0  0  0  0
   58.5600   80.1750   28.4920 C   0  0  0  0  0  0  0  0  0  0  0  0
   59.4610   81.0210   29.1460 C   0  0  0  0  0  0  0  0  0  0  0  0
   59.4480   81.0990   30.5380 C   0  0  0  0  0  0  0  0  0  0  0  0
   60.5880   82.1650   31.3760 S   0  0  0  0  0  0  0  0  0  0  0  0
   62.0440   81.7460   30.6380 N   0  0  0  0  0  0  0  0  0  0  0  0
   60.2870   83.5310   31.0230 O   0  0  0  0  0  0  0  0  0  0  0  0
   60.7100   81.7230   32.7470 O   0  0  0  0  0  0  0  0  0  0  0  0
   58.5600   80.3250   31.2850 C   0  0  0  0  0  0  0  0  0  0  0  0
   57.6630   79.4820   30.6270 C   0  0  0  0  0  0  0  0  0  0  0  0
   55.6620   79.1690   27.6460 C   0  0  0  0  0  0  0  0  0  0  0  0
   54.3120   78.7810   27.6280 C   0  0  0  0  0  0  0  0  0  0  0  0
   53.3930   79.4360   26.8050 C   0  0  0  0  0  0  0  0  0  0  0  0
   53.8210   80.4960   26.0010 C   0  0  0  0  0  0  0  0  0  0  0  0
   52.6670   81.3050   24.9340 S   0  0  0  0  0  0  0  0  0  0  0  0
   53.3100   80.9820   23.4170 N   0  0  0  0  0  0  0  0  0  0  0  0
   52.7750   82.7350   25.1120 O   0  0  0  0  0  0  0  0  0  0  0  0
   51.4010   80.6120   24.9840 O   0  0  0  0  0  0  0  0  0  0  0  0
   55.1600   80.8910   25.9980 C   0  0  0  0  0  0  0  0  0  0  0  0
   56.0740   80.2320   26.8230 C   0  0  0  0  0  0  0  0  0  0  0  0
   56.1189   77.7984   30.5575 H   0  0  0  0  0  0  0  0  0  0  0  0
   54.8074   77.6154   29.3438 H   0  0  0  0  0  0  0  0  0  0  0  0
   56.1965   76.4765   29.3438 H   0  0  0  0  0  0  0  0  0  0  0  0
   57.2948   77.7938   27.9506 H   0  0  0  0  0  0  0  0  0  0  0  0
   58.5687   80.1173   27.3936 H   0  0  0  0  0  0  0  0  0  0  0  0
   60.1763   81.6219   28.5653 H   0  0  0  0  0  0  0  0  0  0  0  0
   62.2300   82.4060   29.8820 H   0  0  0  0  0  0  0  0  0  0  0  0
   62.8220   81.6860   31.2940 H   0  0  0  0  0  0  0  0  0  0  0  0
   58.5666   80.3785   32.3837 H   0  0  0  0  0  0  0  0  0  0  0  0
   56.9601   78.8739   31.2154 H   0  0  0  0  0  0  0  0  0  0  0  0
   53.9751   77.9527   28.2687 H   0  0  0  0  0  0  0  0  0  0  0  0
   52.3396   79.1197   26.7898 H   0  0  0  0  0  0  0  0  0  0  0  0
   53.8420   80.1120   23.4490 H   0  0  0  0  0  0  0  0  0  0  0  0
   52.5660   80.9850   22.7200 H   0  0  0  0  0  0  0  0  0  0  0  0
   55.4928   81.7155   25.3504 H   0  0  0  0  0  0  0  0  0  0  0  0
   57.1276   80.5480   26.8290 H   0  0  0  0  0  0  0  0  0  0  0  0
  1  2  1  0
  2  3  1  0
  3  4  1  0
  4  5  2  0
  5  6  1  0
  6  7  1  0
  7  8  1  0
  7  9  2  0
  7 10  2  0
  6 11  2  0
 11 12  1  0
  2 13  1  0
 13 14  1  0
 14 15  2  0
 15 16  1  0
 16 17  1  0
 17 18  1  0
 17 19  2  0
 17 20  2  0
 16 21  2  0
 21 22  1  0
 12  3  2  0
 22 13  2  0
  1 23  1  0
  1 24  1  0
  1 25  1  0
  2 26  1  0
  4 27  1  0
  5 28  1  0
  8 29  1  0
  8 30  1  0
 11 31  1  0
 12 32  1  0
 14 33  1  0
 15 34  1  0
 18 35  1  0
 18 36  1  0
 21 37  1  0
 22 38  1  0
M  END
>  <meeko>  (1) 
{"is_sidechain": false}

>  <smiles>  (1) 
CC(c1ccc(S(N)(=O)=O)cc1)c1ccc(S(N)(=O)=O)cc1

>  <vina_score>  (1) 
-8.704

>  <job_id>  (1) 
e64929dd46119b9d

$$$$
