
     RDKit          3D

 43 44  0  0  0  0  0  0  0  0999 V2000
   61.0990   84.8900   32.5840 C   0  0  0  0  0  0  0  0  0  0  0  0
   62.1020   83.7780   32.8650 C   0  0  0  0  0  0  0  0  0  0  0  0
   62.2380   82.8380   31.7370 N   0  0  0  0  0  0  0  0  0  0  0  0
   63.4500   82.7470   31.0230 C   0  0  0  0  0  0  0  0  0  0  0  0
   63.8950   83.9820   30.2720 C   0  0  0  0  0  0  0  0  0  0  0  0
   64.1680   81.7460   30.9600 O   0  0  0  0  0  0  0  0  0  0  0  0
   61.0610   82.1020   31.3190 C   0  0  0  0  0  0  0  0  0  0  0  0
   60.6000   82.1340   29.9960 C   0  0  0  0  0  0  0  0  0  0  0  0
   59.4720   81.4070   29.5860 C   0  0  0  0  0  0  0  0  0  0  0  0
   58.7680   80.6100   30.4860 C   0  0  0  0  0  0  0  0  0  0  0  0
   57.6390   79.9180   30.0000 N   0  0  0  0  0  0  0  0  0  0  0  0
   57.5600   79.1420   28.8580 C   0  0  0  0  0  0  0  0  0  0  0  0
   58.4360   78.9770   28.0190 O   0  0  0  0  0  0  0  0  0  0  0  0
   56.2380   78.4900   28.6370 C   0  0  0  0  0  0  0  0  0  0  0  0
   55.9190   77.3500   29.3840 C   0  0  0  0  0  0  0  0  0  0  0  0
   54.6890   76.7060   29.2090 C   0  0  0  0  0  0  0  0  0  0  0  0
   53.7640   77.2050   28.2910 C   0  0  0  0  0  0  0  0  0  0  0  0
   52.5320   76.6750   28.0210 O   0  0  0  0  0  0  0  0  0  0  0  0
   52.4600   75.7160   26.9730 C   0  0  0  0  0  0  0  0  0  0  0  0
   54.0760   78.3550   27.5580 C   0  0  0  0  0  0  0  0  0  0  0  0
   55.3030   79.0020   27.7300 C   0  0  0  0  0  0  0  0  0  0  0  0
   59.2140   80.5530   31.8020 C   0  0  0  0  0  0  0  0  0  0  0  0
   60.3440   81.2840   32.2080 C   0  0  0  0  0  0  0  0  0  0  0  0
   60.7295   85.2996   33.5357 H   0  0  0  0  0  0  0  0  0  0  0  0
   61.5886   85.6881   32.0067 H   0  0  0  0  0  0  0  0  0  0  0  0
   60.2548   84.4850   32.0067 H   0  0  0  0  0  0  0  0  0  0  0  0
   63.0838   84.2317   33.0657 H   0  0  0  0  0  0  0  0  0  0  0  0
   61.7335   83.2081   33.7307 H   0  0  0  0  0  0  0  0  0  0  0  0
   64.1775   84.7659   30.9901 H   0  0  0  0  0  0  0  0  0  0  0  0
   64.7606   83.7347   29.6398 H   0  0  0  0  0  0  0  0  0  0  0  0
   63.0706   84.3436   29.6398 H   0  0  0  0  0  0  0  0  0  0  0  0
   61.1379   82.7467   29.2576 H   0  0  0  0  0  0  0  0  0  0  0  0
   59.1390   81.4672   28.5394 H   0  0  0  0  0  0  0  0  0  0  0  0
   56.7830   80.0670   30.5180 H   0  0  0  0  0  0  0  0  0  0  0  0
   56.6412   76.9571   30.1147 H   0  0  0  0  0  0  0  0  0  0  0  0
   54.4512   75.8061   29.7953 H   0  0  0  0  0  0  0  0  0  0  0  0
   52.3842   74.7068   27.4040 H   0  0  0  0  0  0  0  0  0  0  0  0
   51.5744   75.9170   26.3522 H   0  0  0  0  0  0  0  0  0  0  0  0
   53.3657   75.7825   26.3522 H   0  0  0  0  0  0  0  0  0  0  0  0
   53.3470   78.7548   26.8377 H   0  0  0  0  0  0  0  0  0  0  0  0
   55.5331   79.9107   27.1544 H   0  0  0  0  0  0  0  0  0  0  0  0
   58.6773   79.9298   32.5324 H   0  0  0  0  0  0  0  0  0  0  0  0
   60.6771   81.2133   33.2540 H   0  0  0  0  0  0  0  0  0  0  0  0
  1  2  1  0
  2  3  1  0
  3  4  1  0
  4  5  1  0
  4  6  2  0
  3  7  1  0
  7  8  1  0
  8  9  2  0
  9 10  1  0
 10 11  1  0
 11 12  1  0
 12 13  2  0
 12 14  1  0
 14 15  1  0
 15 16  2  0
 16 17  1  0
 17 18  1  0
 18 19  1  0
 17 20  2  0
 20 21  1  0
 10 22  2  0
 22 23  1  0
 23  7  2  0
 21 14  2  0
  1 24  1  0
  1 25  1  0
  1 26  1  0
  2 27  1  0
  2 28  1  0
  5 29  1  0
  5 30  1  0
  5 31  1  0
  8 32  1  0
  9 33  1  0
 11 34  1  0
 15 35  1  0
 16 36  1  0
 19 37  1  0
 19 38  1  0
 19 39  1  0
 20 40  1  0
 21 41  1  0
 22 42  1  0
 23 43  1  0
M  END
>  <meeko>  (1) 
{"is_sidechain": false}

>  <smiles>  (1) 
CCN(C(C)=O)c1ccc(NC(=O)c2ccc(OC)cc2)cc1

>  <vina_score>  (1) 
-7.211

>  <job_id>  (1) 
e65f008476f1f47b

$$$$
