
     RDKit          3D

 43 45  0  0  0  0  0  0  0  0999 V2000
   55.5790   81.8090   26.4210 C   0  0  0  0  0  0  0  0  0  0  0  0
   54.3250   81.3200   26.4840 C   0  0  0  0  0  0  0  0  0  0  0  0
   53.3100   82.1190   27.2700 C   0  0  0  0  0  0  0  0  0  0  0  0
   53.8910   80.1350   25.8200 N   0  0  0  0  0  0  0  0  0  0  0  0
   53.9180   78.8230   26.3100 C   0  0  0  0  0  0  0  0  0  0  0  0
   54.5710   78.3570   27.5200 C   0  0  0  0  0  0  0  0  0  0  0  0
   55.8560   78.7550   27.6450 N   0  0  0  0  0  0  0  0  0  0  0  0
   56.5010   78.3790   28.7580 C   0  0  0  0  0  0  0  0  0  0  0  0
   57.8130   78.8150   28.8550 N   0  0  0  0  0  0  0  0  0  0  0  0
   58.0240   80.1050   29.5110 C   0  0  0  0  0  0  0  0  0  0  0  0
   58.4650   79.8570   30.9540 C   0  0  0  0  0  0  0  0  0  0  0  0
   58.7260   81.1760   31.6750 C   0  0  0  0  0  0  0  0  0  0  0  0
   59.1190   82.2310   30.7980 O   0  0  0  0  0  0  0  0  0  0  0  0
   59.9290   81.7710   29.7220 C   0  0  0  0  0  0  0  0  0  0  0  0
   59.0940   80.9230   28.7700 C   0  0  0  0  0  0  0  0  0  0  0  0
   55.9480   77.6340   29.7280 N   0  0  0  0  0  0  0  0  0  0  0  0
   54.6570   77.2730   29.5700 C   0  0  0  0  0  0  0  0  0  0  0  0
   53.9130   77.6150   28.4740 C   0  0  0  0  0  0  0  0  0  0  0  0
   52.6360   77.2320   28.3500 F   0  0  0  0  0  0  0  0  0  0  0  0
   53.3110   78.0440   25.3490 C   0  0  0  0  0  0  0  0  0  0  0  0
   52.9500   78.7800   24.2690 N   0  0  0  0  0  0  0  0  0  0  0  0
   53.2910   80.0220   24.5530 C   0  0  0  0  0  0  0  0  0  0  0  0
   52.9520   81.1610   23.6560 C   0  0  0  0  0  0  0  0  0  0  0  0
   56.3541   81.2648   25.8614 H   0  0  0  0  0  0  0  0  0  0  0  0
   55.8277   82.7524   26.9292 H   0  0  0  0  0  0  0  0  0  0  0  0
   53.4875   81.9793   28.3466 H   0  0  0  0  0  0  0  0  0  0  0  0
   53.4076   83.1852   27.0176 H   0  0  0  0  0  0  0  0  0  0  0  0
   52.2965   81.7738   27.0176 H   0  0  0  0  0  0  0  0  0  0  0  0
   58.3220   78.0310   29.2510 H   0  0  0  0  0  0  0  0  0  0  0  0
   57.0848   80.6775   29.4964 H   0  0  0  0  0  0  0  0  0  0  0  0
   57.6732   79.3070   31.4836 H   0  0  0  0  0  0  0  0  0  0  0  0
   59.3960   79.2712   30.9424 H   0  0  0  0  0  0  0  0  0  0  0  0
   57.8045   81.4785   32.1939 H   0  0  0  0  0  0  0  0  0  0  0  0
   59.5586   81.0061   32.3735 H   0  0  0  0  0  0  0  0  0  0  0  0
   60.3376   82.6352   29.1777 H   0  0  0  0  0  0  0  0  0  0  0  0
   60.7520   81.1612   30.1231 H   0  0  0  0  0  0  0  0  0  0  0  0
   58.5960   81.5867   28.0478 H   0  0  0  0  0  0  0  0  0  0  0  0
   59.7694   80.2175   28.2640 H   0  0  0  0  0  0  0  0  0  0  0  0
   54.1801   76.6750   30.3606 H   0  0  0  0  0  0  0  0  0  0  0  0
   53.1408   76.9616   25.4458 H   0  0  0  0  0  0  0  0  0  0  0  0
   52.6903   82.0403   24.2629 H   0  0  0  0  0  0  0  0  0  0  0  0
   53.8185   81.3983   23.0212 H   0  0  0  0  0  0  0  0  0  0  0  0
   52.0968   80.8859   23.0212 H   0  0  0  0  0  0  0  0  0  0  0  0
  1  2  2  0
  2  3  1  0
  2  4  1  0
  4  5  1  0
  5  6  1  0
  6  7  2  0
  7  8  1  0
  8  9  1  0
  9 10  1  0
 10 11  1  0
 11 12  1  0
 12 13  1  0
 13 14  1  0
 14 15  1  0
  8 16  2  0
 16 17  1  0
 17 18  2  0
 18 19  1  0
  5 20  2  0
 20 21  1  0
 21 22  2  0
 22 23  1  0
 22  4  1  0
 18  6  1  0
 15 10  1  0
  1 24  1  0
  1 25  1  0
  3 26  1  0
  3 27  1  0
  3 28  1  0
  9 29  1  0
 10 30  1  0
 11 31  1  0
 11 32  1  0
 12 33  1  0
 12 34  1  0
 14 35  1  0
 14 36  1  0
 15 37  1  0
 15 38  1  0
 17 39  1  0
 20 40  1  0
 23 41  1  0
 23 42  1  0
 23 43  1  0
M  END
>  <meeko>  (1) 
{"is_sidechain": false}

>  <smiles>  (1) 
C=C(C)n1c(-c2nc(NC3CCOCC3)ncc2F)cnc1C

>  <vina_score>  (1) 
-8.097

>  <job_id>  (1) 
e67ee7781bc9b78e

$$$$
