
     RDKit          3D

 43 46  0  0  0  0  0  0  0  0999 V2000
   53.3100   82.6610   27.2700 C   0  0  0  0  0  0  0  0  0  0  0  0
   53.4080   81.2480   27.3970 O   0  0  0  0  0  0  0  0  0  0  0  0
   53.3260   80.4970   26.2500 C   0  0  0  0  0  0  0  0  0  0  0  0
   52.6890   80.9270   25.0810 C   0  0  0  0  0  0  0  0  0  0  0  0
   52.6920   80.1180   23.9490 C   0  0  0  0  0  0  0  0  0  0  0  0
   52.0800   80.5430   22.8370 F   0  0  0  0  0  0  0  0  0  0  0  0
   53.3250   78.8850   23.9500 C   0  0  0  0  0  0  0  0  0  0  0  0
   53.9620   78.4480   25.1100 C   0  0  0  0  0  0  0  0  0  0  0  0
   53.9680   79.2350   26.2820 C   0  0  0  0  0  0  0  0  0  0  0  0
   54.6460   78.7190   27.4840 C   0  0  0  0  0  0  0  0  0  0  0  0
   55.9300   79.1360   27.6450 N   0  0  0  0  0  0  0  0  0  0  0  0
   56.6020   78.6940   28.7220 C   0  0  0  0  0  0  0  0  0  0  0  0
   57.9200   79.1700   28.8510 N   0  0  0  0  0  0  0  0  0  0  0  0
   58.1890   80.2980   29.6570 N   0  0  0  0  0  0  0  0  0  0  0  0
   58.6070   79.8570   31.0040 C   0  0  0  0  0  0  0  0  0  0  0  0
   59.1410   81.0430   31.8440 C   0  0  0  0  0  0  0  0  0  0  0  0
   58.1850   82.2310   31.8770 C   0  0  0  0  0  0  0  0  0  0  0  0
   58.5730   83.0440   30.6460 C   0  0  0  0  0  0  0  0  0  0  0  0
   59.7150   82.2440   30.0270 C   0  0  0  0  0  0  0  0  0  0  0  0
   59.2280   81.1550   29.0400 C   0  0  0  0  0  0  0  0  0  0  0  0
   60.3040   81.5770   31.1680 O   0  0  0  0  0  0  0  0  0  0  0  0
   56.0770   77.8590   29.6370 N   0  0  0  0  0  0  0  0  0  0  0  0
   54.8090   77.4490   29.4360 C   0  0  0  0  0  0  0  0  0  0  0  0
   54.0470   77.8470   28.3700 C   0  0  0  0  0  0  0  0  0  0  0  0
   52.8050   77.3740   28.2030 F   0  0  0  0  0  0  0  0  0  0  0  0
   53.2783   83.1177   28.2702 H   0  0  0  0  0  0  0  0  0  0  0  0
   54.1839   83.0413   26.7208 H   0  0  0  0  0  0  0  0  0  0  0  0
   52.3919   82.9170   26.7208 H   0  0  0  0  0  0  0  0  0  0  0  0
   52.1857   81.9048   25.0568 H   0  0  0  0  0  0  0  0  0  0  0  0
   53.3246   78.2586   23.0458 H   0  0  0  0  0  0  0  0  0  0  0  0
   54.4694   77.4720   25.1124 H   0  0  0  0  0  0  0  0  0  0  0  0
   58.3600   79.1020   27.9360 H   0  0  0  0  0  0  0  0  0  0  0  0
   57.7428   79.4130   31.5198 H   0  0  0  0  0  0  0  0  0  0  0  0
   59.4151   79.1191   30.8924 H   0  0  0  0  0  0  0  0  0  0  0  0
   59.3134   80.6513   32.8573 H   0  0  0  0  0  0  0  0  0  0  0  0
   57.1397   81.8949   31.8112 H   0  0  0  0  0  0  0  0  0  0  0  0
   58.2576   82.8099   32.8095 H   0  0  0  0  0  0  0  0  0  0  0  0
   57.7273   83.1249   29.9472 H   0  0  0  0  0  0  0  0  0  0  0  0
   58.8612   84.0768   30.8917 H   0  0  0  0  0  0  0  0  0  0  0  0
   60.3880   82.9004   29.4558 H   0  0  0  0  0  0  0  0  0  0  0  0
   58.8079   81.6418   28.1475 H   0  0  0  0  0  0  0  0  0  0  0  0
   60.0858   80.5218   28.7693 H   0  0  0  0  0  0  0  0  0  0  0  0
   54.3627   76.7584   30.1666 H   0  0  0  0  0  0  0  0  0  0  0  0
  1  2  1  0
  2  3  1  0
  3  4  1  0
  4  5  2  0
  5  6  1  0
  5  7  1  0
  7  8  2  0
  8  9  1  0
  9 10  1  0
 10 11  2  0
 11 12  1  0
 12 13  1  0
 13 14  1  0
 14 15  1  0
 15 16  1  0
 16 17  1  0
 17 18  1  0
 18 19  1  0
 19 20  1  0
 19 21  1  0
 12 22  2  0
 22 23  1  0
 23 24  2  0
 24 25  1  0
  9  3  2  0
 24 10  1  0
 20 14  1  0
 21 16  1  0
  1 26  1  0
  1 27  1  0
  1 28  1  0
  4 29  1  0
  7 30  1  0
  8 31  1  0
 13 32  1  0
 15 33  1  0
 15 34  1  0
 16 35  1  0
 17 36  1  0
 17 37  1  0
 18 38  1  0
 18 39  1  0
 19 40  1  0
 20 41  1  0
 20 42  1  0
 23 43  1  0
M  END
>  <meeko>  (1) 
{"is_sidechain": false}

>  <smiles>  (1) 
COc1cc(F)ccc1-c1nc(NN2CC3CCC(C2)O3)ncc1F

>  <vina_score>  (1) 
-8.604

>  <job_id>  (1) 
e6b2f9111be8462b

$$$$
