
     RDKit          3D

 54 56  0  0  0  0  0  0  0  0999 V2000
   53.6850   78.6370   24.2700 C   0  0  0  0  0  0  0  0  0  0  0  0
   53.4920   80.0470   24.8180 C   0  0  1  0  0  0  0  0  0  0  0  0
   52.1130   80.3900   24.6450 O   0  0  0  0  0  0  0  0  0  0  0  0
   53.9160   80.2270   26.3050 C   0  0  1  0  0  0  0  0  0  0  0  0
   53.4510   81.5610   26.8950 C   0  0  0  0  0  0  0  0  0  0  0  0
   53.3990   79.1020   27.0980 N   0  0  0  0  0  0  0  0  0  0  0  0
   54.3110   78.3750   27.8850 C   0  0  0  0  0  0  0  0  0  0  0  0
   55.5560   78.8600   28.0660 N   0  0  0  0  0  0  0  0  0  0  0  0
   56.4400   78.1420   28.7800 C   0  0  0  0  0  0  0  0  0  0  0  0
   57.6920   78.7320   28.9220 N   0  0  0  0  0  0  0  0  0  0  0  0
   58.1700   79.8530   29.6070 C   0  0  0  0  0  0  0  0  0  0  0  0
   58.6980   80.9870   28.9760 C   0  0  0  0  0  0  0  0  0  0  0  0
   59.1470   82.0880   29.7140 C   0  0  0  0  0  0  0  0  0  0  0  0
   59.0590   82.0670   31.1040 C   0  0  0  0  0  0  0  0  0  0  0  0
   59.6190   83.4700   32.0410 S   0  0  0  0  0  0  0  0  0  0  0  0
   60.2830   82.9430   33.2210 O   0  0  0  0  0  0  0  0  0  0  0  0
   58.4960   84.3780   32.1970 O   0  0  0  0  0  0  0  0  0  0  0  0
   60.8670   84.2400   31.0200 C   0  0  0  0  0  0  0  0  0  0  0  0
   62.2400   83.7010   31.3250 C   0  0  0  0  0  0  0  0  0  0  0  0
   63.1080   84.3950   32.1820 C   0  0  0  0  0  0  0  0  0  0  0  0
   64.3870   83.9020   32.4520 C   0  0  0  0  0  0  0  0  0  0  0  0
   64.7980   82.7100   31.8660 C   0  0  0  0  0  0  0  0  0  0  0  0
   66.0390   82.1950   32.0980 O   0  0  0  0  0  0  0  0  0  0  0  0
   63.9530   82.0050   31.0200 C   0  0  0  0  0  0  0  0  0  0  0  0
   62.6740   82.4950   30.7510 C   0  0  0  0  0  0  0  0  0  0  0  0
   58.5600   80.9440   31.7630 C   0  0  0  0  0  0  0  0  0  0  0  0
   58.1130   79.8520   31.0120 C   0  0  0  0  0  0  0  0  0  0  0  0
   56.1530   76.9460   29.3120 N   0  0  0  0  0  0  0  0  0  0  0  0
   54.9120   76.4670   29.1070 C   0  0  0  0  0  0  0  0  0  0  0  0
   53.9480   77.1370   28.3950 C   0  0  0  0  0  0  0  0  0  0  0  0
   52.2330   76.3790   28.1710 Br  0  0  0  0  0  0  0  0  0  0  0  0
   53.7819   77.9288   25.1061 H   0  0  0  0  0  0  0  0  0  0  0  0
   52.8163   78.3608   23.6543 H   0  0  0  0  0  0  0  0  0  0  0  0
   54.5960   78.6044   23.6543 H   0  0  0  0  0  0  0  0  0  0  0  0
   54.1582   80.7191   24.2573 H   0  0  0  0  0  0  0  0  0  0  0  0
   51.7940   80.7360   25.4970 H   0  0  0  0  0  0  0  0  0  0  0  0
   55.0153   80.2382   26.3411 H   0  0  0  0  0  0  0  0  0  0  0  0
   53.4712   81.5031   27.9933 H   0  0  0  0  0  0  0  0  0  0  0  0
   54.1220   82.3648   26.5578 H   0  0  0  0  0  0  0  0  0  0  0  0
   52.4258   81.7736   26.5578 H   0  0  0  0  0  0  0  0  0  0  0  0
   52.5860   79.3540   27.6560 H   0  0  0  0  0  0  0  0  0  0  0  0
   58.3620   78.2060   28.3800 H   0  0  0  0  0  0  0  0  0  0  0  0
   58.7609   81.0124   27.8781 H   0  0  0  0  0  0  0  0  0  0  0  0
   59.5670   82.9648   29.1994 H   0  0  0  0  0  0  0  0  0  0  0  0
   60.6336   84.0457   29.9628 H   0  0  0  0  0  0  0  0  0  0  0  0
   60.8660   85.3199   31.2295 H   0  0  0  0  0  0  0  0  0  0  0  0
   62.7781   85.3364   32.6457 H   0  0  0  0  0  0  0  0  0  0  0  0
   65.0633   84.4523   33.1227 H   0  0  0  0  0  0  0  0  0  0  0  0
   65.9420   81.2700   32.3810 H   0  0  0  0  0  0  0  0  0  0  0  0
   64.2903   81.0630   30.5630 H   0  0  0  0  0  0  0  0  0  0  0  0
   62.0020   81.9332   30.0855 H   0  0  0  0  0  0  0  0  0  0  0  0
   58.5184   80.9172   32.8619 H   0  0  0  0  0  0  0  0  0  0  0  0
   57.7074   78.9719   31.5326 H   0  0  0  0  0  0  0  0  0  0  0  0
   54.6562   75.4856   29.5330 H   0  0  0  0  0  0  0  0  0  0  0  0
  1  2  1  0
  2  3  1  0
  2  4  1  0
  4  5  1  0
  4  6  1  0
  6  7  1  0
  7  8  2  0
  8  9  1  0
  9 10  1  0
 10 11  1  0
 11 12  1  0
 12 13  2  0
 13 14  1  0
 14 15  1  0
 15 16  2  0
 15 17  2  0
 15 18  1  0
 18 19  1  0
 19 20  1  0
 20 21  2  0
 21 22  1  0
 22 23  1  0
 22 24  2  0
 24 25  1  0
 14 26  2  0
 26 27  1  0
  9 28  2  0
 28 29  1  0
 29 30  2  0
 30 31  1  0
 30  7  1  0
 27 11  2  0
 25 19  2  0
  1 32  1  0
  1 33  1  0
  1 34  1  0
  2 35  1  6
  3 36  1  0
  4 37  1  6
  5 38  1  0
  5 39  1  0
  5 40  1  0
  6 41  1  0
 10 42  1  0
 12 43  1  0
 13 44  1  0
 18 45  1  0
 18 46  1  0
 20 47  1  0
 21 48  1  0
 23 49  1  0
 24 50  1  0
 25 51  1  0
 26 52  1  0
 27 53  1  0
 29 54  1  0
M  END
>  <meeko>  (1) 
{"is_sidechain": false}

>  <smiles>  (1) 
C[C@@H](O)[C@@H](C)Nc1nc(Nc2ccc(S(=O)(=O)Cc3ccc(O)cc3)cc2)ncc1Br

>  <vina_score>  (1) 
-8.022

>  <job_id>  (1) 
e6ee6ada4540aef7

$$$$
