
     RDKit          3D

 39 40  0  0  0  0  0  0  0  0999 V2000
   52.5820   81.7300   22.5270 C   0  0  0  0  0  0  0  0  0  0  0  0
   53.0600   81.5400   23.8930 N   0  0  0  0  0  0  0  0  0  0  0  0
   52.9350   82.7760   24.6660 C   0  0  0  0  0  0  0  0  0  0  0  0
   52.4280   80.3940   24.5770 C   0  0  0  0  0  0  0  0  0  0  0  0
   53.4240   79.4280   25.2370 C   0  0  0  0  0  0  0  0  0  0  0  0
   54.0000   78.5620   24.5840 O   0  0  0  0  0  0  0  0  0  0  0  0
   53.5760   79.6600   26.5930 N   0  0  0  0  0  0  0  0  0  0  0  0
   54.4210   78.9830   27.5010 C   0  0  0  0  0  0  0  0  0  0  0  0
   55.7600   79.3080   27.7360 C   0  0  0  0  0  0  0  0  0  0  0  0
   56.5340   78.5830   28.6580 C   0  0  0  0  0  0  0  0  0  0  0  0
   57.8970   78.8460   28.8920 N   0  0  0  0  0  0  0  0  0  0  0  0
   58.5600   79.8570   29.6100 C   0  0  0  0  0  0  0  0  0  0  0  0
   58.4410   79.8800   31.0080 C   0  0  0  0  0  0  0  0  0  0  0  0
   59.0510   80.8810   31.7720 C   0  0  0  0  0  0  0  0  0  0  0  0
   59.7860   81.8810   31.1450 C   0  0  0  0  0  0  0  0  0  0  0  0
   59.9110   81.8790   29.7580 C   0  0  0  0  0  0  0  0  0  0  0  0
   59.3010   80.8750   29.0000 C   0  0  0  0  0  0  0  0  0  0  0  0
   55.9350   77.5120   29.3420 C   0  0  0  0  0  0  0  0  0  0  0  0
   54.5980   77.1820   29.1260 C   0  0  0  0  0  0  0  0  0  0  0  0
   53.8570   77.9170   28.2120 C   0  0  0  0  0  0  0  0  0  0  0  0
   52.5700   77.5940   28.0060 F   0  0  0  0  0  0  0  0  0  0  0  0
   51.5600   82.1362   22.5493 H   0  0  0  0  0  0  0  0  0  0  0  0
   53.2446   82.4331   22.0011 H   0  0  0  0  0  0  0  0  0  0  0  0
   52.5811   80.7639   22.0011 H   0  0  0  0  0  0  0  0  0  0  0  0
   52.9588   82.5406   25.7403 H   0  0  0  0  0  0  0  0  0  0  0  0
   53.7697   83.4487   24.4194 H   0  0  0  0  0  0  0  0  0  0  0  0
   51.9825   83.2679   24.4194 H   0  0  0  0  0  0  0  0  0  0  0  0
   51.7576   80.7845   25.3568 H   0  0  0  0  0  0  0  0  0  0  0  0
   51.8945   79.8198   23.8052 H   0  0  0  0  0  0  0  0  0  0  0  0
   53.0130   80.3970   27.0070 H   0  0  0  0  0  0  0  0  0  0  0  0
   56.2162   80.1465   27.1893 H   0  0  0  0  0  0  0  0  0  0  0  0
   58.5260   78.1720   28.4700 H   0  0  0  0  0  0  0  0  0  0  0  0
   57.8571   79.0963   31.5128 H   0  0  0  0  0  0  0  0  0  0  0  0
   58.9492   80.8768   32.8673 H   0  0  0  0  0  0  0  0  0  0  0  0
   60.2666   82.6702   31.7419 H   0  0  0  0  0  0  0  0  0  0  0  0
   60.4907   82.6688   29.2579 H   0  0  0  0  0  0  0  0  0  0  0  0
   59.4055   80.8856   27.9050 H   0  0  0  0  0  0  0  0  0  0  0  0
   56.5294   76.9256   30.0581 H   0  0  0  0  0  0  0  0  0  0  0  0
   54.1356   76.3480   29.6742 H   0  0  0  0  0  0  0  0  0  0  0  0
  1  2  1  0
  2  3  1  0
  2  4  1  0
  4  5  1  0
  5  6  2  0
  5  7  1  0
  7  8  1  0
  8  9  1  0
  9 10  2  0
 10 11  1  0
 11 12  1  0
 12 13  2  0
 13 14  1  0
 14 15  2  0
 15 16  1  0
 16 17  2  0
 10 18  1  0
 18 19  2  0
 19 20  1  0
 20 21  1  0
 20  8  2  0
 17 12  1  0
  1 22  1  0
  1 23  1  0
  1 24  1  0
  3 25  1  0
  3 26  1  0
  3 27  1  0
  4 28  1  0
  4 29  1  0
  7 30  1  0
  9 31  1  0
 11 32  1  0
 13 33  1  0
 14 34  1  0
 15 35  1  0
 16 36  1  0
 17 37  1  0
 18 38  1  0
 19 39  1  0
M  END
>  <meeko>  (1) 
{"is_sidechain": false}

>  <smiles>  (1) 
CN(C)CC(=O)Nc1cc(Nc2ccccc2)ccc1F

>  <vina_score>  (1) 
-7.938

>  <job_id>  (1) 
e74ef67384da271d

$$$$
