
     RDKit          3D

 47 49  0  0  0  0  0  0  0  0999 V2000
   52.5700   75.5260   27.2630 C   0  0  0  0  0  0  0  0  0  0  0  0
   52.8900   76.8780   26.9630 O   0  0  0  0  0  0  0  0  0  0  0  0
   53.9430   77.4280   27.6390 C   0  0  0  0  0  0  0  0  0  0  0  0
   54.4090   78.6340   27.1160 C   0  0  0  0  0  0  0  0  0  0  0  0
   55.4810   79.3060   27.7130 C   0  0  0  0  0  0  0  0  0  0  0  0
   56.1160   78.7840   28.8490 C   0  0  0  0  0  0  0  0  0  0  0  0
   57.2440   79.4860   29.4800 C   0  0  0  0  0  0  0  0  0  0  0  0
   58.2050   80.1530   28.7170 C   0  0  0  0  0  0  0  0  0  0  0  0
   59.2800   80.8230   29.3260 C   0  0  0  0  0  0  0  0  0  0  0  0
   59.4510   80.8640   30.7200 C   0  0  0  0  0  0  0  0  0  0  0  0
   60.5290   81.5300   31.3070 N   0  0  0  0  0  0  0  0  0  0  0  0
   60.9380   81.2590   32.6890 C   0  0  0  0  0  0  0  0  0  0  0  0
   60.0310   81.9490   33.7050 C   0  0  0  0  0  0  0  0  0  0  0  0
   60.1390   83.4760   33.7090 C   0  0  0  0  0  0  0  0  0  0  0  0
   59.7550   84.0700   32.4300 N   0  0  0  0  0  0  0  0  0  0  0  0
   58.6380   84.8800   32.4130 C   0  0  0  0  0  0  0  0  0  0  0  0
   57.4490   84.2430   32.5620 N   0  0  0  0  0  0  0  0  0  0  0  0
   58.6530   86.0960   32.2650 O   0  0  0  0  0  0  0  0  0  0  0  0
   60.7510   84.0880   31.3430 C   0  0  0  0  0  0  0  0  0  0  0  0
   61.0590   82.7460   30.6410 C   0  0  0  0  0  0  0  0  0  0  0  0
   58.4820   80.1810   31.4690 C   0  0  0  0  0  0  0  0  0  0  0  0
   57.4020   79.5120   30.8690 C   0  0  0  0  0  0  0  0  0  0  0  0
   55.6380   77.5690   29.3660 C   0  0  0  0  0  0  0  0  0  0  0  0
   54.5620   76.8970   28.7700 C   0  0  0  0  0  0  0  0  0  0  0  0
   52.5379   75.3902   28.3541 H   0  0  0  0  0  0  0  0  0  0  0  0
   51.5882   75.2776   26.8335 H   0  0  0  0  0  0  0  0  0  0  0  0
   53.3362   74.8639   26.8335 H   0  0  0  0  0  0  0  0  0  0  0  0
   53.9281   79.0617   26.2239 H   0  0  0  0  0  0  0  0  0  0  0  0
   55.8306   80.2572   27.2853 H   0  0  0  0  0  0  0  0  0  0  0  0
   58.1191   80.1540   27.6204 H   0  0  0  0  0  0  0  0  0  0  0  0
   60.0151   81.3345   28.6873 H   0  0  0  0  0  0  0  0  0  0  0  0
   60.9026   80.1733   32.8624 H   0  0  0  0  0  0  0  0  0  0  0  0
   61.9562   81.6530   32.8231 H   0  0  0  0  0  0  0  0  0  0  0  0
   58.9895   81.6776   33.4776 H   0  0  0  0  0  0  0  0  0  0  0  0
   60.3537   81.6072   34.6995 H   0  0  0  0  0  0  0  0  0  0  0  0
   59.4794   83.8738   34.4943 H   0  0  0  0  0  0  0  0  0  0  0  0
   61.1920   83.7350   33.8938 H   0  0  0  0  0  0  0  0  0  0  0  0
   56.6820   84.9020   32.6310 H   0  0  0  0  0  0  0  0  0  0  0  0
   57.4210   83.5310   33.2760 H   0  0  0  0  0  0  0  0  0  0  0  0
   60.3890   84.7872   30.5748 H   0  0  0  0  0  0  0  0  0  0  0  0
   61.6948   84.3750   31.8297 H   0  0  0  0  0  0  0  0  0  0  0  0
   60.6314   82.7893   29.6284 H   0  0  0  0  0  0  0  0  0  0  0  0
   62.1540   82.6436   30.6614 H   0  0  0  0  0  0  0  0  0  0  0  0
   58.5706   80.1686   32.5654 H   0  0  0  0  0  0  0  0  0  0  0  0
   56.6659   78.9983   31.5048 H   0  0  0  0  0  0  0  0  0  0  0  0
   56.1175   77.1361   30.2563 H   0  0  0  0  0  0  0  0  0  0  0  0
   54.2048   75.9478   29.1958 H   0  0  0  0  0  0  0  0  0  0  0  0
  1  2  1  0
  2  3  1  0
  3  4  1  0
  4  5  2  0
  5  6  1  0
  6  7  1  0
  7  8  1  0
  8  9  2  0
  9 10  1  0
 10 11  1  0
 11 12  1  0
 12 13  1  0
 13 14  1  0
 14 15  1  0
 15 16  1  0
 16 17  1  0
 16 18  2  0
 15 19  1  0
 19 20  1  0
 10 21  2  0
 21 22  1  0
  6 23  2  0
 23 24  1  0
 24  3  2  0
 22  7  2  0
 20 11  1  0
  1 25  1  0
  1 26  1  0
  1 27  1  0
  4 28  1  0
  5 29  1  0
  8 30  1  0
  9 31  1  0
 12 32  1  0
 12 33  1  0
 13 34  1  0
 13 35  1  0
 14 36  1  0
 14 37  1  0
 17 38  1  0
 17 39  1  0
 19 40  1  0
 19 41  1  0
 20 42  1  0
 20 43  1  0
 21 44  1  0
 22 45  1  0
 23 46  1  0
 24 47  1  0
M  END
>  <meeko>  (1) 
{"is_sidechain": false}

>  <smiles>  (1) 
COc1ccc(-c2ccc(N3CCCN(C(N)=O)CC3)cc2)cc1

>  <vina_score>  (1) 
-5.831

>  <job_id>  (1) 
e75f0421e5df0b4e

$$$$
