
     RDKit          3D

 41 42  0  0  0  0  0  0  0  0999 V2000
   58.5940   83.7880   32.1450 C   0  0  0  0  0  0  0  0  0  0  0  0
   59.6200   83.7530   31.0200 C   0  0  0  0  0  0  0  0  0  0  0  0
   60.8220   82.8420   31.3390 C   0  0  0  0  0  0  0  0  0  0  0  0
   62.1240   83.6230   31.1530 C   0  0  0  0  0  0  0  0  0  0  0  0
   60.8310   81.6930   30.4310 N   0  0  0  0  0  0  0  0  0  0  0  0
   59.6730   80.9870   30.1130 C   0  0  0  0  0  0  0  0  0  0  0  0
   59.2830   80.9140   28.7700 C   0  0  0  0  0  0  0  0  0  0  0  0
   58.1620   80.1750   28.3700 C   0  0  0  0  0  0  0  0  0  0  0  0
   57.4010   79.4590   29.3010 C   0  0  0  0  0  0  0  0  0  0  0  0
   56.2210   78.6810   28.8890 C   0  0  0  0  0  0  0  0  0  0  0  0
   55.8930   77.4720   29.5280 C   0  0  0  0  0  0  0  0  0  0  0  0
   54.7740   76.7290   29.1400 C   0  0  0  0  0  0  0  0  0  0  0  0
   53.9640   77.1980   28.1050 C   0  0  0  0  0  0  0  0  0  0  0  0
   52.5670   76.2460   27.5870 S   0  0  0  0  0  0  0  0  0  0  0  0
   53.0260   74.6910   28.0200 N   0  0  0  0  0  0  0  0  0  0  0  0
   52.4940   76.2520   26.1450 O   0  0  0  0  0  0  0  0  0  0  0  0
   51.4330   76.5710   28.4210 O   0  0  0  0  0  0  0  0  0  0  0  0
   54.2740   78.3870   27.4430 C   0  0  0  0  0  0  0  0  0  0  0  0
   55.3940   79.1230   27.8400 C   0  0  0  0  0  0  0  0  0  0  0  0
   57.8110   79.5000   30.6410 C   0  0  0  0  0  0  0  0  0  0  0  0
   58.9350   80.2410   31.0340 C   0  0  0  0  0  0  0  0  0  0  0  0
   59.1126   83.7703   33.1149 H   0  0  0  0  0  0  0  0  0  0  0  0
   57.9948   84.7071   32.0663 H   0  0  0  0  0  0  0  0  0  0  0  0
   57.9336   82.9119   32.0663 H   0  0  0  0  0  0  0  0  0  0  0  0
   59.1296   83.3820   30.1079 H   0  0  0  0  0  0  0  0  0  0  0  0
   60.0038   84.7755   30.8885 H   0  0  0  0  0  0  0  0  0  0  0  0
   60.7369   82.4944   32.3792 H   0  0  0  0  0  0  0  0  0  0  0  0
   62.5442   83.8751   32.1378 H   0  0  0  0  0  0  0  0  0  0  0  0
   62.8440   83.0076   30.5937 H   0  0  0  0  0  0  0  0  0  0  0  0
   61.9200   84.5480   30.5937 H   0  0  0  0  0  0  0  0  0  0  0  0
   61.4720   81.7790   29.6480 H   0  0  0  0  0  0  0  0  0  0  0  0
   59.8712   81.4500   28.0106 H   0  0  0  0  0  0  0  0  0  0  0  0
   57.8756   80.1573   27.3081 H   0  0  0  0  0  0  0  0  0  0  0  0
   56.5280   77.1044   30.3475 H   0  0  0  0  0  0  0  0  0  0  0  0
   54.5341   75.7825   29.6465 H   0  0  0  0  0  0  0  0  0  0  0  0
   53.7970   74.7310   28.6860 H   0  0  0  0  0  0  0  0  0  0  0  0
   52.2140   74.1730   28.3580 H   0  0  0  0  0  0  0  0  0  0  0  0
   53.6420   78.7420   26.6156 H   0  0  0  0  0  0  0  0  0  0  0  0
   55.6330   80.0642   27.3233 H   0  0  0  0  0  0  0  0  0  0  0  0
   57.2409   78.9410   31.3977 H   0  0  0  0  0  0  0  0  0  0  0  0
   59.2417   80.2343   32.0904 H   0  0  0  0  0  0  0  0  0  0  0  0
  1  2  1  0
  2  3  1  0
  3  4  1  0
  3  5  1  0
  5  6  1  0
  6  7  1  0
  7  8  2  0
  8  9  1  0
  9 10  1  0
 10 11  1  0
 11 12  2  0
 12 13  1  0
 13 14  1  0
 14 15  1  0
 14 16  2  0
 14 17  2  0
 13 18  2  0
 18 19  1  0
  9 20  2  0
 20 21  1  0
 21  6  2  0
 19 10  2  0
  1 22  1  0
  1 23  1  0
  1 24  1  0
  2 25  1  0
  2 26  1  0
  3 27  1  0
  4 28  1  0
  4 29  1  0
  4 30  1  0
  5 31  1  0
  7 32  1  0
  8 33  1  0
 11 34  1  0
 12 35  1  0
 15 36  1  0
 15 37  1  0
 18 38  1  0
 19 39  1  0
 20 40  1  0
 21 41  1  0
M  END
>  <meeko>  (1) 
{"is_sidechain": false}

>  <smiles>  (1) 
CCC(C)Nc1ccc(-c2ccc(S(N)(=O)=O)cc2)cc1

>  <vina_score>  (1) 
-7.468

>  <job_id>  (1) 
e8b8ee8b21b20fe7

$$$$
