
     RDKit          3D

 40 41  0  0  0  0  0  0  0  0999 V2000
   59.3620   80.2320   31.9320 C   0  0  0  0  0  0  0  0  0  0  0  0
   58.4840   80.8950   30.8710 C   0  0  0  0  0  0  0  0  0  0  0  0
   58.9350   82.3340   30.6340 C   0  0  0  0  0  0  0  0  0  0  0  0
   58.5490   80.1100   29.5630 C   0  0  0  0  0  0  0  0  0  0  0  0
   59.6240   79.8330   29.0300 O   0  0  0  0  0  0  0  0  0  0  0  0
   57.2850   79.6750   28.8860 C   0  0  0  0  0  0  0  0  0  0  0  0
   56.9690   80.2550   27.6460 C   0  0  0  0  0  0  0  0  0  0  0  0
   55.8050   79.8930   26.9600 C   0  0  0  0  0  0  0  0  0  0  0  0
   54.9340   78.9550   27.5190 C   0  0  0  0  0  0  0  0  0  0  0  0
   53.6960   78.5240   26.8230 C   0  0  0  0  0  0  0  0  0  0  0  0
   53.0910   77.5410   27.2420 O   0  0  0  0  0  0  0  0  0  0  0  0
   53.1690   79.2460   25.6350 C   0  0  0  0  0  0  0  0  0  0  0  0
   53.3210   78.7410   24.3360 C   0  0  0  0  0  0  0  0  0  0  0  0
   52.8320   79.4620   23.2440 C   0  0  0  0  0  0  0  0  0  0  0  0
   52.2000   80.6930   23.4540 C   0  0  0  0  0  0  0  0  0  0  0  0
   51.6080   81.6180   22.0600 S   0  0  0  0  0  0  0  0  0  0  0  0
   49.9490   81.3570   22.1630 N   0  0  0  0  0  0  0  0  0  0  0  0
   51.8000   83.0240   22.3290 O   0  0  0  0  0  0  0  0  0  0  0  0
   52.0860   80.9820   20.8550 O   0  0  0  0  0  0  0  0  0  0  0  0
   52.0720   81.2190   24.7420 C   0  0  0  0  0  0  0  0  0  0  0  0
   52.5600   80.4930   25.8320 C   0  0  0  0  0  0  0  0  0  0  0  0
   55.2500   78.3590   28.7450 C   0  0  0  0  0  0  0  0  0  0  0  0
   56.4160   78.7210   29.4290 C   0  0  0  0  0  0  0  0  0  0  0  0
   58.9981   80.5068   32.9330 H   0  0  0  0  0  0  0  0  0  0  0  0
   59.3187   79.1393   31.8133 H   0  0  0  0  0  0  0  0  0  0  0  0
   60.4011   80.5728   31.8133 H   0  0  0  0  0  0  0  0  0  0  0  0
   57.4452   80.9010   31.2327 H   0  0  0  0  0  0  0  0  0  0  0  0
   59.0915   82.8333   31.6016 H   0  0  0  0  0  0  0  0  0  0  0  0
   59.8763   82.3342   30.0648 H   0  0  0  0  0  0  0  0  0  0  0  0
   58.1622   82.8714   30.0648 H   0  0  0  0  0  0  0  0  0  0  0  0
   57.6460   81.0037   27.2088 H   0  0  0  0  0  0  0  0  0  0  0  0
   55.5764   80.3454   25.9838 H   0  0  0  0  0  0  0  0  0  0  0  0
   53.8255   77.7766   24.1766 H   0  0  0  0  0  0  0  0  0  0  0  0
   52.9431   79.0643   22.2244 H   0  0  0  0  0  0  0  0  0  0  0  0
   49.5850   81.1670   21.2270 H   0  0  0  0  0  0  0  0  0  0  0  0
   49.4430   82.1120   22.6240 H   0  0  0  0  0  0  0  0  0  0  0  0
   51.5912   82.1962   24.8969 H   0  0  0  0  0  0  0  0  0  0  0  0
   52.4658   80.9019   26.8488 H   0  0  0  0  0  0  0  0  0  0  0  0
   54.5777   77.6012   29.1738 H   0  0  0  0  0  0  0  0  0  0  0  0
   56.6506   78.2542   30.3970 H   0  0  0  0  0  0  0  0  0  0  0  0
  1  2  1  0
  2  3  1  0
  2  4  1  0
  4  5  2  0
  4  6  1  0
  6  7  1  0
  7  8  2  0
  8  9  1  0
  9 10  1  0
 10 11  2  0
 10 12  1  0
 12 13  1  0
 13 14  2  0
 14 15  1  0
 15 16  1  0
 16 17  1  0
 16 18  2  0
 16 19  2  0
 15 20  2  0
 20 21  1  0
  9 22  2  0
 22 23  1  0
 23  6  2  0
 21 12  2  0
  1 24  1  0
  1 25  1  0
  1 26  1  0
  2 27  1  0
  3 28  1  0
  3 29  1  0
  3 30  1  0
  7 31  1  0
  8 32  1  0
 13 33  1  0
 14 34  1  0
 17 35  1  0
 17 36  1  0
 20 37  1  0
 21 38  1  0
 22 39  1  0
 23 40  1  0
M  END
>  <meeko>  (1) 
{"is_sidechain": false}

>  <smiles>  (1) 
CC(C)C(=O)c1ccc(C(=O)c2ccc(S(N)(=O)=O)cc2)cc1

>  <vina_score>  (1) 
-8.117

>  <job_id>  (1) 
e8ef6b3057c8cecd

$$$$
