
     RDKit          3D

 51 53  0  0  0  0  0  0  0  0999 V2000
   52.7710   81.6490   24.0830 C   0  0  0  0  0  0  0  0  0  0  0  0
   53.1870   80.4030   24.7800 C   0  0  0  0  0  0  0  0  0  0  0  0
   52.9360   79.1890   24.3390 N   0  0  0  0  0  0  0  0  0  0  0  0
   53.4490   78.3450   25.2760 C   0  0  0  0  0  0  0  0  0  0  0  0
   54.0430   79.0320   26.3180 C   0  0  0  0  0  0  0  0  0  0  0  0
   54.6940   78.4820   27.4970 C   0  0  0  0  0  0  0  0  0  0  0  0
   54.0190   77.6680   28.3730 C   0  0  0  0  0  0  0  0  0  0  0  0
   54.7490   77.2410   29.4510 C   0  0  0  0  0  0  0  0  0  0  0  0
   56.0310   77.5900   29.6610 N   0  0  0  0  0  0  0  0  0  0  0  0
   56.6060   78.4060   28.7650 C   0  0  0  0  0  0  0  0  0  0  0  0
   57.9250   78.8330   28.8930 N   0  0  0  0  0  0  0  0  0  0  0  0
   58.5540   79.8530   29.6150 C   0  0  0  0  0  0  0  0  0  0  0  0
   58.4240   79.8570   31.0150 C   0  0  0  0  0  0  0  0  0  0  0  0
   59.0030   80.8620   31.7980 C   0  0  0  0  0  0  0  0  0  0  0  0
   59.7080   81.8960   31.1840 C   0  0  0  0  0  0  0  0  0  0  0  0
   60.3380   82.9370   32.0290 C   0  0  0  0  0  0  0  0  0  0  0  0
   61.4640   82.7070   32.4680 O   0  0  0  0  0  0  0  0  0  0  0  0
   59.6470   84.1230   32.2760 N   0  0  0  0  0  0  0  0  0  0  0  0
   58.2050   84.2810   32.1450 C   0  0  0  0  0  0  0  0  0  0  0  0
   60.3450   85.1920   32.9670 C   0  0  0  0  0  0  0  0  0  0  0  0
   59.8670   81.9020   29.7980 C   0  0  0  0  0  0  0  0  0  0  0  0
   59.2810   80.8930   29.0230 C   0  0  0  0  0  0  0  0  0  0  0  0
   55.9720   78.8620   27.6740 N   0  0  0  0  0  0  0  0  0  0  0  0
   53.8910   80.3660   25.9760 N   0  0  0  0  0  0  0  0  0  0  0  0
   54.3920   81.5560   26.6650 C   0  0  0  0  0  0  0  0  0  0  0  0
   55.5200   82.2440   25.8960 C   0  0  0  0  0  0  0  0  0  0  0  0
   53.3110   82.5410   27.1170 C   0  0  0  0  0  0  0  0  0  0  0  0
   52.5145   82.4173   24.8273 H   0  0  0  0  0  0  0  0  0  0  0  0
   53.5973   82.0101   23.4531 H   0  0  0  0  0  0  0  0  0  0  0  0
   51.8935   81.4413   23.4531 H   0  0  0  0  0  0  0  0  0  0  0  0
   53.3970   77.2481   25.2116 H   0  0  0  0  0  0  0  0  0  0  0  0
   52.9685   77.3797   28.2204 H   0  0  0  0  0  0  0  0  0  0  0  0
   54.2618   76.5790   30.1820 H   0  0  0  0  0  0  0  0  0  0  0  0
   58.4910   78.3330   28.2230 H   0  0  0  0  0  0  0  0  0  0  0  0
   57.8552   79.0532   31.5052 H   0  0  0  0  0  0  0  0  0  0  0  0
   58.9022   80.8362   32.8931 H   0  0  0  0  0  0  0  0  0  0  0  0
   57.7493   84.3309   33.1449 H   0  0  0  0  0  0  0  0  0  0  0  0
   57.9862   85.2085   31.5956 H   0  0  0  0  0  0  0  0  0  0  0  0
   57.7905   83.4229   31.5956 H   0  0  0  0  0  0  0  0  0  0  0  0
   60.2514   85.0487   34.0536 H   0  0  0  0  0  0  0  0  0  0  0  0
   61.4083   85.1776   32.6855 H   0  0  0  0  0  0  0  0  0  0  0  0
   59.9042   86.1597   32.6855 H   0  0  0  0  0  0  0  0  0  0  0  0
   60.4519   82.6982   29.3143 H   0  0  0  0  0  0  0  0  0  0  0  0
   59.3940   80.9181   27.9291 H   0  0  0  0  0  0  0  0  0  0  0  0
   54.8207   81.1691   27.6012 H   0  0  0  0  0  0  0  0  0  0  0  0
   56.2359   82.6807   26.6079 H   0  0  0  0  0  0  0  0  0  0  0  0
   56.0355   81.5064   25.2634 H   0  0  0  0  0  0  0  0  0  0  0  0
   55.1002   83.0400   25.2634 H   0  0  0  0  0  0  0  0  0  0  0  0
   53.2784   82.5707   28.2161 H   0  0  0  0  0  0  0  0  0  0  0  0
   53.5438   83.5440   26.7298 H   0  0  0  0  0  0  0  0  0  0  0  0
   52.3340   82.2162   26.7298 H   0  0  0  0  0  0  0  0  0  0  0  0
  1  2  1  0
  2  3  2  0
  3  4  1  0
  4  5  2  0
  5  6  1  0
  6  7  1  0
  7  8  2  0
  8  9  1  0
  9 10  2  0
 10 11  1  0
 11 12  1  0
 12 13  1  0
 13 14  2  0
 14 15  1  0
 15 16  1  0
 16 17  2  0
 16 18  1  0
 18 19  1  0
 18 20  1  0
 15 21  2  0
 21 22  1  0
 10 23  1  0
  5 24  1  0
 24 25  1  0
 25 26  1  0
 25 27  1  0
 24  2  1  0
 23  6  2  0
 22 12  2  0
  1 28  1  0
  1 29  1  0
  1 30  1  0
  4 31  1  0
  7 32  1  0
  8 33  1  0
 11 34  1  0
 13 35  1  0
 14 36  1  0
 19 37  1  0
 19 38  1  0
 19 39  1  0
 20 40  1  0
 20 41  1  0
 20 42  1  0
 21 43  1  0
 22 44  1  0
 25 45  1  0
 26 46  1  0
 26 47  1  0
 26 48  1  0
 27 49  1  0
 27 50  1  0
 27 51  1  0
M  END
>  <meeko>  (1) 
{"is_sidechain": false}

>  <smiles>  (1) 
Cc1ncc(-c2ccnc(Nc3ccc(C(=O)N(C)C)cc3)n2)n1C(C)C

>  <vina_score>  (1) 
-8.775

>  <job_id>  (1) 
e920047505b4d23a

$$$$
