
     RDKit          3D

 44 46  0  0  0  0  0  0  0  0999 V2000
   52.7880   76.6190   27.6460 C   0  0  0  0  0  0  0  0  0  0  0  0
   54.0230   77.3350   28.1100 C   0  0  0  0  0  0  0  0  0  0  0  0
   54.8030   76.8030   29.1450 C   0  0  0  0  0  0  0  0  0  0  0  0
   55.9720   77.4490   29.5560 C   0  0  0  0  0  0  0  0  0  0  0  0
   56.3720   78.6370   28.9310 C   0  0  0  0  0  0  0  0  0  0  0  0
   57.6100   79.3590   29.3380 C   0  0  0  0  0  0  0  0  0  0  0  0
   58.5590   79.3630   28.5640 O   0  0  0  0  0  0  0  0  0  0  0  0
   57.5360   79.9910   30.5670 N   0  0  0  0  0  0  0  0  0  0  0  0
   58.5520   80.7230   31.2160 C   0  0  0  0  0  0  0  0  0  0  0  0
   59.3200   80.2260   32.2720 C   0  0  0  0  0  0  0  0  0  0  0  0
   60.3090   81.0180   32.8660 C   0  0  0  0  0  0  0  0  0  0  0  0
   60.5190   82.3220   32.4190 C   0  0  0  0  0  0  0  0  0  0  0  0
   61.5790   83.1380   33.0530 C   0  0  0  0  0  0  0  0  0  0  0  0
   61.2670   83.8550   34.0010 O   0  0  0  0  0  0  0  0  0  0  0  0
   62.8740   83.0550   32.5550 N   0  0  0  0  0  0  0  0  0  0  0  0
   63.2440   82.4830   31.2550 C   0  0  0  0  0  0  0  0  0  0  0  0
   64.4350   83.2290   30.6450 C   0  0  0  0  0  0  0  0  0  0  0  0
   65.6000   83.2180   31.4810 O   0  0  0  0  0  0  0  0  0  0  0  0
   65.3100   83.2330   32.8880 C   0  0  0  0  0  0  0  0  0  0  0  0
   63.9310   83.8000   33.2350 C   0  0  0  0  0  0  0  0  0  0  0  0
   59.7710   82.8250   31.3520 C   0  0  0  0  0  0  0  0  0  0  0  0
   58.7890   82.0280   30.7590 C   0  0  0  0  0  0  0  0  0  0  0  0
   55.6140   79.1530   27.8750 C   0  0  0  0  0  0  0  0  0  0  0  0
   54.4450   78.5050   27.4680 C   0  0  0  0  0  0  0  0  0  0  0  0
   52.2090   76.2833   28.5190 H   0  0  0  0  0  0  0  0  0  0  0  0
   52.1745   77.3015   27.0395 H   0  0  0  0  0  0  0  0  0  0  0  0
   53.0755   75.7475   27.0395 H   0  0  0  0  0  0  0  0  0  0  0  0
   54.4929   75.8698   29.6379 H   0  0  0  0  0  0  0  0  0  0  0  0
   56.5779   77.0247   30.3701 H   0  0  0  0  0  0  0  0  0  0  0  0
   56.6350   79.9870   31.0260 H   0  0  0  0  0  0  0  0  0  0  0  0
   59.1458   79.2039   32.6394 H   0  0  0  0  0  0  0  0  0  0  0  0
   60.9205   80.6120   33.6853 H   0  0  0  0  0  0  0  0  0  0  0  0
   63.5137   81.4253   31.3912 H   0  0  0  0  0  0  0  0  0  0  0  0
   62.3855   82.5776   30.5738 H   0  0  0  0  0  0  0  0  0  0  0  0
   64.6894   82.7551   29.6855 H   0  0  0  0  0  0  0  0  0  0  0  0
   64.1327   84.2794   30.5214 H   0  0  0  0  0  0  0  0  0  0  0  0
   65.3634   82.2002   33.2629 H   0  0  0  0  0  0  0  0  0  0  0  0
   66.0528   83.8941   33.3583 H   0  0  0  0  0  0  0  0  0  0  0  0
   63.7770   83.7323   34.3221 H   0  0  0  0  0  0  0  0  0  0  0  0
   63.8894   84.8486   32.9053 H   0  0  0  0  0  0  0  0  0  0  0  0
   59.9544   83.8440   30.9804 H   0  0  0  0  0  0  0  0  0  0  0  0
   58.1948   82.4282   29.9242 H   0  0  0  0  0  0  0  0  0  0  0  0
   55.9389   80.0711   27.3637 H   0  0  0  0  0  0  0  0  0  0  0  0
   53.8525   78.9169   26.6378 H   0  0  0  0  0  0  0  0  0  0  0  0
  1  2  1  0
  2  3  1  0
  3  4  2  0
  4  5  1  0
  5  6  1  0
  6  7  2  0
  6  8  1  0
  8  9  1  0
  9 10  1  0
 10 11  2  0
 11 12  1  0
 12 13  1  0
 13 14  2  0
 13 15  1  0
 15 16  1  0
 16 17  1  0
 17 18  1  0
 18 19  1  0
 19 20  1  0
 12 21  2  0
 21 22  1  0
  5 23  2  0
 23 24  1  0
 24  2  2  0
 22  9  2  0
 20 15  1  0
  1 25  1  0
  1 26  1  0
  1 27  1  0
  3 28  1  0
  4 29  1  0
  8 30  1  0
 10 31  1  0
 11 32  1  0
 16 33  1  0
 16 34  1  0
 17 35  1  0
 17 36  1  0
 19 37  1  0
 19 38  1  0
 20 39  1  0
 20 40  1  0
 21 41  1  0
 22 42  1  0
 23 43  1  0
 24 44  1  0
M  END
>  <meeko>  (1) 
{"is_sidechain": false}

>  <smiles>  (1) 
Cc1ccc(C(=O)Nc2ccc(C(=O)N3CCOCC3)cc2)cc1

>  <vina_score>  (1) 
-7.744

>  <job_id>  (1) 
e95ed7f4649f02a5

$$$$
