
     RDKit          3D

 43 45  0  0  0  0  0  0  0  0999 V2000
   65.9930   83.2320   33.2700 O   0  0  0  0  0  0  0  0  0  0  0  0
   64.7240   82.9900   32.8380 C   0  0  0  0  0  0  0  0  0  0  0  0
   64.5530   82.5450   31.5380 C   0  0  0  0  0  0  0  0  0  0  0  0
   63.2660   82.2800   31.0540 C   0  0  0  0  0  0  0  0  0  0  0  0
   62.1290   82.4680   31.8550 C   0  0  0  0  0  0  0  0  0  0  0  0
   60.8200   82.2080   31.4170 N   0  0  0  0  0  0  0  0  0  0  0  0
   60.6820   82.1110   29.9430 C   0  0  0  0  0  0  0  0  0  0  0  0
   59.1910   82.0460   29.5250 C   0  0  0  0  0  0  0  0  0  0  0  0
   58.3700   81.0230   30.2110 N   0  0  0  0  0  0  0  0  0  0  0  0
   58.6820   79.6450   29.7840 C   0  0  0  0  0  0  0  0  0  0  0  0
   58.1390   79.2680   28.3920 C   0  0  0  0  0  0  0  0  0  0  0  0
   56.6990   78.8100   28.4010 C   0  0  0  0  0  0  0  0  0  0  0  0
   55.7330   79.4820   27.6380 C   0  0  0  0  0  0  0  0  0  0  0  0
   54.4030   79.0580   27.6450 C   0  0  0  0  0  0  0  0  0  0  0  0
   54.0250   77.9560   28.4110 C   0  0  0  0  0  0  0  0  0  0  0  0
   54.9770   77.2780   29.1690 C   0  0  0  0  0  0  0  0  0  0  0  0
   56.3080   77.7020   29.1630 C   0  0  0  0  0  0  0  0  0  0  0  0
   58.5610   81.1930   31.6710 C   0  0  0  0  0  0  0  0  0  0  0  0
   60.0330   81.1910   32.1440 C   0  0  0  0  0  0  0  0  0  0  0  0
   62.3450   82.9060   33.1750 C   0  0  0  0  0  0  0  0  0  0  0  0
   63.6280   83.1710   33.6680 C   0  0  0  0  0  0  0  0  0  0  0  0
   66.4450   82.3820   33.3920 H   0  0  0  0  0  0  0  0  0  0  0  0
   65.4271   82.3998   30.8862 H   0  0  0  0  0  0  0  0  0  0  0  0
   63.1434   81.9164   30.0231 H   0  0  0  0  0  0  0  0  0  0  0  0
   61.1467   82.9939   29.4798 H   0  0  0  0  0  0  0  0  0  0  0  0
   61.1798   81.1900   29.6055 H   0  0  0  0  0  0  0  0  0  0  0  0
   58.7415   83.0294   29.7268 H   0  0  0  0  0  0  0  0  0  0  0  0
   59.1925   81.7621   28.4623 H   0  0  0  0  0  0  0  0  0  0  0  0
   59.7758   79.5296   29.7687 H   0  0  0  0  0  0  0  0  0  0  0  0
   58.1883   78.9755   30.5038 H   0  0  0  0  0  0  0  0  0  0  0  0
   58.2182   80.1495   27.7388 H   0  0  0  0  0  0  0  0  0  0  0  0
   58.7417   78.4210   28.0324 H   0  0  0  0  0  0  0  0  0  0  0  0
   56.0257   80.3501   27.0292 H   0  0  0  0  0  0  0  0  0  0  0  0
   53.6524   79.5939   27.0455 H   0  0  0  0  0  0  0  0  0  0  0  0
   52.9768   77.6225   28.4168 H   0  0  0  0  0  0  0  0  0  0  0  0
   54.6803   76.4078   29.7729 H   0  0  0  0  0  0  0  0  0  0  0  0
   57.0554   77.1610   29.7619 H   0  0  0  0  0  0  0  0  0  0  0  0
   58.1100   82.1525   31.9643 H   0  0  0  0  0  0  0  0  0  0  0  0
   58.0852   80.3223   32.1458 H   0  0  0  0  0  0  0  0  0  0  0  0
   60.0658   81.4120   33.2211 H   0  0  0  0  0  0  0  0  0  0  0  0
   60.4663   80.2002   31.9426 H   0  0  0  0  0  0  0  0  0  0  0  0
   61.4793   83.0443   33.8394 H   0  0  0  0  0  0  0  0  0  0  0  0
   63.7653   83.5190   34.7024 H   0  0  0  0  0  0  0  0  0  0  0  0
  1  2  1  0
  2  3  1  0
  3  4  2  0
  4  5  1  0
  5  6  1  0
  6  7  1  0
  7  8  1  0
  8  9  1  0
  9 10  1  0
 10 11  1  0
 11 12  1  0
 12 13  2  0
 13 14  1  0
 14 15  2  0
 15 16  1  0
 16 17  2  0
  9 18  1  0
 18 19  1  0
  5 20  2  0
 20 21  1  0
 21  2  2  0
 19  6  1  0
 17 12  1  0
  1 22  1  0
  3 23  1  0
  4 24  1  0
  7 25  1  0
  7 26  1  0
  8 27  1  0
  8 28  1  0
 10 29  1  0
 10 30  1  0
 11 31  1  0
 11 32  1  0
 13 33  1  0
 14 34  1  0
 15 35  1  0
 16 36  1  0
 17 37  1  0
 18 38  1  0
 18 39  1  0
 19 40  1  0
 19 41  1  0
 20 42  1  0
 21 43  1  0
M  END
>  <meeko>  (1) 
{"is_sidechain": false}

>  <smiles>  (1) 
Oc1ccc(N2CCN(CCc3ccccc3)CC2)cc1

>  <vina_score>  (1) 
-7.001

>  <job_id>  (1) 
ea0085be545895d3

$$$$
