
     RDKit          3D

 60 64  0  0  0  0  0  0  0  0999 V2000
   57.9210   82.7030   32.5570 N   0  0  0  0  0  0  0  0  0  0  0  0
   58.6330   81.6000   32.1280 C   0  0  0  0  0  0  0  0  0  0  0  0
   58.1370   80.6540   31.3110 C   0  0  0  0  0  0  0  0  0  0  0  0
   58.7490   79.5350   30.7930 N   0  0  0  0  0  0  0  0  0  0  0  0
   58.6980   79.1070   29.5020 N   0  0  0  0  0  0  0  0  0  0  0  0
   57.5700   79.2780   28.6710 C   0  0  0  0  0  0  0  0  0  0  0  0
   57.5670   80.3040   27.7200 C   0  0  0  0  0  0  0  0  0  0  0  0
   56.4420   80.5450   26.9200 C   0  0  0  0  0  0  0  0  0  0  0  0
   55.2780   79.7790   27.0650 C   0  0  0  0  0  0  0  0  0  0  0  0
   54.1130   80.0340   26.2300 C   0  0  0  0  0  0  0  0  0  0  0  0
   52.7720   79.7120   26.2750 C   0  0  0  0  0  0  0  0  0  0  0  0
   52.1140   80.2330   25.1900 N   0  0  0  0  0  0  0  0  0  0  0  0
   53.0660   80.8470   24.5270 C   0  0  0  0  0  0  0  0  0  0  0  0
   54.3030   80.7750   25.0890 O   0  0  0  0  0  0  0  0  0  0  0  0
   55.2730   78.7710   28.0390 C   0  0  0  0  0  0  0  0  0  0  0  0
   56.3980   78.5330   28.8370 C   0  0  0  0  0  0  0  0  0  0  0  0
   60.0280   81.5180   32.6110 C   0  0  0  0  0  0  0  0  0  0  0  0
   60.3580   80.7190   33.7140 C   0  0  0  0  0  0  0  0  0  0  0  0
   61.6730   80.6270   34.1830 C   0  0  0  0  0  0  0  0  0  0  0  0
   62.6510   81.3690   33.5120 C   0  0  0  0  0  0  0  0  0  0  0  0
   64.0050   81.4710   33.7460 N   0  0  0  0  0  0  0  0  0  0  0  0
   64.5870   82.3150   32.8390 C   0  0  0  0  0  0  0  0  0  0  0  0
   65.8930   82.5460   32.8960 O   0  0  0  0  0  0  0  0  0  0  0  0
   63.5900   82.7690   32.0030 C   0  0  0  0  0  0  0  0  0  0  0  0
   63.6870   83.6520   30.9170 N   0  0  0  0  0  0  0  0  0  0  0  0
   64.5780   84.5210   31.0360 N   0  0  0  0  0  0  0  0  0  0  0  0
   64.5890   85.3410   29.8970 C   0  0  0  0  0  0  0  0  0  0  0  0
   65.3930   85.0170   28.7950 C   0  0  0  0  0  0  0  0  0  0  0  0
   65.4210   85.8420   27.6680 C   0  0  0  0  0  0  0  0  0  0  0  0
   64.6390   86.9990   27.6460 C   0  0  0  0  0  0  0  0  0  0  0  0
   64.6660   88.0610   26.2250 S   0  0  0  0  0  0  0  0  0  0  0  0
   66.0600   87.5380   25.4410 N   0  0  0  0  0  0  0  0  0  0  0  0
   64.9480   89.4070   26.6660 O   0  0  0  0  0  0  0  0  0  0  0  0
   63.5340   87.7350   25.3930 O   0  0  0  0  0  0  0  0  0  0  0  0
   63.8510   87.3500   28.7470 C   0  0  0  0  0  0  0  0  0  0  0  0
   63.8310   86.5190   29.8690 C   0  0  0  0  0  0  0  0  0  0  0  0
   62.3610   82.1820   32.4120 C   0  0  0  0  0  0  0  0  0  0  0  0
   61.0280   82.2580   31.9610 C   0  0  0  0  0  0  0  0  0  0  0  0
   57.7790   82.7060   33.5660 H   0  0  0  0  0  0  0  0  0  0  0  0
   57.0540   82.8440   32.0460 H   0  0  0  0  0  0  0  0  0  0  0  0
   57.0877   80.7951   31.0127 H   0  0  0  0  0  0  0  0  0  0  0  0
   59.5440   79.1980   31.3430 H   0  0  0  0  0  0  0  0  0  0  0  0
   59.2100   78.2480   29.3050 H   0  0  0  0  0  0  0  0  0  0  0  0
   58.4621   80.9317   27.5983 H   0  0  0  0  0  0  0  0  0  0  0  0
   56.4733   81.3468   26.1676 H   0  0  0  0  0  0  0  0  0  0  0  0
   52.2965   79.1196   27.0706 H   0  0  0  0  0  0  0  0  0  0  0  0
   52.8772   81.3816   23.5844 H   0  0  0  0  0  0  0  0  0  0  0  0
   54.3708   78.1574   28.1784 H   0  0  0  0  0  0  0  0  0  0  0  0
   56.3598   77.7479   29.6066 H   0  0  0  0  0  0  0  0  0  0  0  0
   59.5650   80.1512   34.2227 H   0  0  0  0  0  0  0  0  0  0  0  0
   61.9282   79.9952   35.0466 H   0  0  0  0  0  0  0  0  0  0  0  0
   64.5110   80.9950   34.4780 H   0  0  0  0  0  0  0  0  0  0  0  0
   66.0190   83.4330   32.5000 H   0  0  0  0  0  0  0  0  0  0  0  0
   66.0074   84.1048   28.8180 H   0  0  0  0  0  0  0  0  0  0  0  0
   66.0531   85.5828   26.8059 H   0  0  0  0  0  0  0  0  0  0  0  0
   65.9180   86.7090   24.8640 H   0  0  0  0  0  0  0  0  0  0  0  0
   66.7980   87.3980   26.1350 H   0  0  0  0  0  0  0  0  0  0  0  0
   63.2523   88.2726   28.7292 H   0  0  0  0  0  0  0  0  0  0  0  0
   63.2148   86.7916   30.7385 H   0  0  0  0  0  0  0  0  0  0  0  0
   60.7719   82.8955   31.1019 H   0  0  0  0  0  0  0  0  0  0  0  0
  1  2  1  0
  2  3  2  3
  3  4  1  0
  4  5  1  0
  5  6  1  0
  6  7  1  0
  7  8  2  0
  8  9  1  0
  9 10  1  0
 10 11  2  0
 11 12  1  0
 12 13  2  0
 13 14  1  0
  9 15  2  0
 15 16  1  0
  2 17  1  0
 17 18  2  0
 18 19  1  0
 19 20  2  0
 20 21  1  0
 21 22  1  0
 22 23  1  0
 22 24  2  0
 24 25  1  0
 25 26  2  3
 26 27  1  0
 27 28  1  0
 28 29  2  0
 29 30  1  0
 30 31  1  0
 31 32  1  0
 31 33  2  0
 31 34  2  0
 30 35  2  0
 35 36  1  0
 24 37  1  0
 37 38  2  0
 16  6  2  0
 38 17  1  0
 14 10  1  0
 37 20  1  0
 36 27  2  0
  1 39  1  0
  1 40  1  0
  3 41  1  0
  4 42  1  0
  5 43  1  0
  7 44  1  0
  8 45  1  0
 11 46  1  0
 13 47  1  0
 15 48  1  0
 16 49  1  0
 18 50  1  0
 19 51  1  0
 21 52  1  0
 23 53  1  0
 28 54  1  0
 29 55  1  0
 32 56  1  0
 32 57  1  0
 35 58  1  0
 36 59  1  0
 38 60  1  0
M  END
>  <meeko>  (1) 
{"is_sidechain": false}

>  <smiles>  (1) 
NC(=CNNc1ccc(-c2cnco2)cc1)c1ccc2[nH]c(O)c(N=Nc3ccc(S(N)(=O)=O)cc3)c2c1

>  <vina_score>  (1) 
-9.132

>  <job_id>  (1) 
eaa99ebe3942a5f8

$$$$
