
     RDKit          3D

 35 36  0  0  0  0  0  0  0  0999 V2000
   62.0920   82.6330   32.4340 C   0  0  0  0  0  0  0  0  0  0  0  0
   60.4160   83.1660   32.2070 S   0  0  0  0  0  0  0  0  0  0  0  0
   60.4300   84.3760   31.4060 O   0  0  0  0  0  0  0  0  0  0  0  0
   59.7550   83.1350   33.4970 O   0  0  0  0  0  0  0  0  0  0  0  0
   59.7120   81.8750   31.2110 C   0  0  0  0  0  0  0  0  0  0  0  0
   59.8770   81.9050   29.8260 C   0  0  0  0  0  0  0  0  0  0  0  0
   59.3110   80.8940   29.0440 C   0  0  0  0  0  0  0  0  0  0  0  0
   58.5770   79.8530   29.6250 C   0  0  0  0  0  0  0  0  0  0  0  0
   57.9550   78.8400   28.8730 N   0  0  0  0  0  0  0  0  0  0  0  0
   56.6020   78.5290   28.6540 C   0  0  0  0  0  0  0  0  0  0  0  0
   55.9370   77.5050   29.3430 C   0  0  0  0  0  0  0  0  0  0  0  0
   54.5760   77.2530   29.1400 C   0  0  0  0  0  0  0  0  0  0  0  0
   53.8530   78.0260   28.2360 C   0  0  0  0  0  0  0  0  0  0  0  0
   54.5080   79.0400   27.5350 C   0  0  0  0  0  0  0  0  0  0  0  0
   53.5890   80.0250   26.3860 S   0  0  0  0  0  0  0  0  0  0  0  0
   54.7480   80.3360   25.2050 N   0  0  0  0  0  0  0  0  0  0  0  0
   52.5600   79.2010   25.7980 O   0  0  0  0  0  0  0  0  0  0  0  0
   53.3100   81.3050   26.9960 O   0  0  0  0  0  0  0  0  0  0  0  0
   55.8660   79.3000   27.7460 C   0  0  0  0  0  0  0  0  0  0  0  0
   58.4070   79.8570   31.0190 C   0  0  0  0  0  0  0  0  0  0  0  0
   58.9680   80.8610   31.8130 C   0  0  0  0  0  0  0  0  0  0  0  0
   62.3120   82.5630   33.5095 H   0  0  0  0  0  0  0  0  0  0  0  0
   62.2296   81.6468   31.9667 H   0  0  0  0  0  0  0  0  0  0  0  0
   62.7740   83.3586   31.9667 H   0  0  0  0  0  0  0  0  0  0  0  0
   60.4479   82.7177   29.3531 H   0  0  0  0  0  0  0  0  0  0  0  0
   59.4447   80.9168   27.9524 H   0  0  0  0  0  0  0  0  0  0  0  0
   58.6060   78.2680   28.3460 H   0  0  0  0  0  0  0  0  0  0  0  0
   56.4977   76.8861   30.0589 H   0  0  0  0  0  0  0  0  0  0  0  0
   54.0774   76.4443   29.6945 H   0  0  0  0  0  0  0  0  0  0  0  0
   52.7806   77.8405   28.0762 H   0  0  0  0  0  0  0  0  0  0  0  0
   55.6720   80.1220   25.5840 H   0  0  0  0  0  0  0  0  0  0  0  0
   54.5740   79.8480   24.3270 H   0  0  0  0  0  0  0  0  0  0  0  0
   56.3587   80.1149   27.1954 H   0  0  0  0  0  0  0  0  0  0  0  0
   57.8220   79.0558   31.4943 H   0  0  0  0  0  0  0  0  0  0  0  0
   58.8238   80.8514   32.9035 H   0  0  0  0  0  0  0  0  0  0  0  0
  1  2  1  0
  2  3  2  0
  2  4  2  0
  2  5  1  0
  5  6  1  0
  6  7  2  0
  7  8  1  0
  8  9  1  0
  9 10  1  0
 10 11  1  0
 11 12  2  0
 12 13  1  0
 13 14  2  0
 14 15  1  0
 15 16  1  0
 15 17  2  0
 15 18  2  0
 14 19  1  0
  8 20  2  0
 20 21  1  0
 21  5  2  0
 19 10  2  0
  1 22  1  0
  1 23  1  0
  1 24  1  0
  6 25  1  0
  7 26  1  0
  9 27  1  0
 11 28  1  0
 12 29  1  0
 13 30  1  0
 16 31  1  0
 16 32  1  0
 19 33  1  0
 20 34  1  0
 21 35  1  0
M  END
>  <meeko>  (1) 
{"is_sidechain": false}

>  <smiles>  (1) 
CS(=O)(=O)c1ccc(Nc2cccc(S(N)(=O)=O)c2)cc1

>  <vina_score>  (1) 
-7.916

>  <job_id>  (1) 
eab133d9253e237d

$$$$
