
     RDKit          3D

 65 68  0  0  0  0  0  0  0  0999 V2000
   52.5770   82.9090   24.1910 C   0  0  0  0  0  0  0  0  0  0  0  0
   52.7460   81.6630   23.7200 C   0  0  0  0  0  0  0  0  0  0  0  0
   52.7210   81.3690   22.2450 C   0  0  0  0  0  0  0  0  0  0  0  0
   52.9760   80.5290   24.6430 C   0  0  0  0  0  0  0  0  0  0  0  0
   53.3100   79.2580   24.1600 C   0  0  0  0  0  0  0  0  0  0  0  0
   53.5430   78.1870   25.0350 C   0  0  0  0  0  0  0  0  0  0  0  0
   53.4770   78.3540   26.4210 C   0  0  0  0  0  0  0  0  0  0  0  0
   53.6240   77.3240   27.3540 N   0  0  0  0  0  0  0  0  0  0  0  0
   53.8530   77.6120   28.7720 C   0  0  0  0  0  0  0  0  0  0  0  0
   55.2780   77.3310   29.2410 C   0  0  0  0  0  0  0  0  0  0  0  0
   55.5890   76.2180   29.6730 O   0  0  0  0  0  0  0  0  0  0  0  0
   56.3350   78.3820   29.1280 C   0  0  0  0  0  0  0  0  0  0  0  0
   56.6570   79.0100   27.9240 C   0  0  0  0  0  0  0  0  0  0  0  0
   57.6710   79.9780   27.8840 C   0  0  0  0  0  0  0  0  0  0  0  0
   58.3890   80.3460   29.0330 C   0  0  0  0  0  0  0  0  0  0  0  0
   59.3980   81.3050   28.9100 N   0  0  0  0  0  0  0  0  0  0  0  0
   59.9150   82.2790   29.7590 C   0  0  0  0  0  0  0  0  0  0  0  0
   59.1460   83.2340   30.3050 N   0  0  0  0  0  0  0  0  0  0  0  0
   59.7470   84.1390   31.1040 C   0  0  0  0  0  0  0  0  0  0  0  0
   61.0860   84.1190   31.3860 C   0  0  0  0  0  0  0  0  0  0  0  0
   61.6390   85.0400   32.1840 F   0  0  0  0  0  0  0  0  0  0  0  0
   61.8000   83.0960   30.8060 C   0  0  0  0  0  0  0  0  0  0  0  0
   63.2390   82.9550   30.9840 C   0  0  0  0  0  0  0  0  0  0  0  0
   63.9260   81.8780   31.5140 C   0  0  0  0  0  0  0  0  0  0  0  0
   65.2690   82.1040   31.5540 N   0  0  0  0  0  0  0  0  0  0  0  0
   65.4420   83.3050   31.0470 C   0  0  0  0  0  0  0  0  0  0  0  0
   66.7630   83.9740   30.9140 C   0  0  0  0  0  0  0  0  0  0  0  0
   64.2330   83.8580   30.6450 N   0  0  0  0  0  0  0  0  0  0  0  0
   64.1180   85.1370   29.9420 C   0  0  0  0  0  0  0  0  0  0  0  0
   64.9470   85.1750   28.6580 C   0  0  0  0  0  0  0  0  0  0  0  0
   64.3390   86.3740   30.8150 C   0  0  0  0  0  0  0  0  0  0  0  0
   61.2370   82.1780   29.9910 N   0  0  0  0  0  0  0  0  0  0  0  0
   58.0670   79.6950   30.2260 C   0  0  0  0  0  0  0  0  0  0  0  0
   57.0530   78.7290   30.2780 C   0  0  0  0  0  0  0  0  0  0  0  0
   53.1150   79.6230   26.8960 C   0  0  0  0  0  0  0  0  0  0  0  0
   52.8830   80.6970   26.0270 C   0  0  0  0  0  0  0  0  0  0  0  0
   52.6000   83.0951   25.2749 H   0  0  0  0  0  0  0  0  0  0  0  0
   52.4156   83.7437   23.4930 H   0  0  0  0  0  0  0  0  0  0  0  0
   52.6288   80.2841   22.0889 H   0  0  0  0  0  0  0  0  0  0  0  0
   51.8631   81.8801   21.7837 H   0  0  0  0  0  0  0  0  0  0  0  0
   53.6529   81.7279   21.7837 H   0  0  0  0  0  0  0  0  0  0  0  0
   53.3911   79.0966   23.0749 H   0  0  0  0  0  0  0  0  0  0  0  0
   53.7824   77.1959   24.6222 H   0  0  0  0  0  0  0  0  0  0  0  0
   52.9040   76.6180   27.2150 H   0  0  0  0  0  0  0  0  0  0  0  0
   53.6343   78.6755   28.9485 H   0  0  0  0  0  0  0  0  0  0  0  0
   53.1926   76.9429   29.3430 H   0  0  0  0  0  0  0  0  0  0  0  0
   56.1144   78.7452   27.0045 H   0  0  0  0  0  0  0  0  0  0  0  0
   57.9104   80.4623   26.9258 H   0  0  0  0  0  0  0  0  0  0  0  0
   59.8020   81.4260   27.9930 H   0  0  0  0  0  0  0  0  0  0  0  0
   59.1304   84.9326   31.5512 H   0  0  0  0  0  0  0  0  0  0  0  0
   63.4462   80.9511   31.8612 H   0  0  0  0  0  0  0  0  0  0  0  0
   67.1716   84.1809   31.9141 H   0  0  0  0  0  0  0  0  0  0  0  0
   67.4532   83.3168   30.3647 H   0  0  0  0  0  0  0  0  0  0  0  0
   66.6416   84.9193   30.3647 H   0  0  0  0  0  0  0  0  0  0  0  0
   63.0589   85.1928   29.6501 H   0  0  0  0  0  0  0  0  0  0  0  0
   66.0159   85.2240   28.9130 H   0  0  0  0  0  0  0  0  0  0  0  0
   64.7519   84.2670   28.0686 H   0  0  0  0  0  0  0  0  0  0  0  0
   64.6696   86.0614   28.0686 H   0  0  0  0  0  0  0  0  0  0  0  0
   64.2879   86.0879   31.8759 H   0  0  0  0  0  0  0  0  0  0  0  0
   65.3281   86.8037   30.5983 H   0  0  0  0  0  0  0  0  0  0  0  0
   63.5598   87.1196   30.5983 H   0  0  0  0  0  0  0  0  0  0  0  0
   58.6203   79.9455   31.1431 H   0  0  0  0  0  0  0  0  0  0  0  0
   56.8187   78.2378   31.2339 H   0  0  0  0  0  0  0  0  0  0  0  0
   53.0105   79.7791   27.9798 H   0  0  0  0  0  0  0  0  0  0  0  0
   52.6247   81.6837   26.4389 H   0  0  0  0  0  0  0  0  0  0  0  0
  1  2  2  0
  2  3  1  0
  2  4  1  0
  4  5  1  0
  5  6  2  0
  6  7  1  0
  7  8  1  0
  8  9  1  0
  9 10  1  0
 10 11  2  0
 10 12  1  0
 12 13  1  0
 13 14  2  0
 14 15  1  0
 15 16  1  0
 16 17  1  0
 17 18  2  0
 18 19  1  0
 19 20  2  0
 20 21  1  0
 20 22  1  0
 22 23  1  0
 23 24  2  0
 24 25  1  0
 25 26  2  0
 26 27  1  0
 26 28  1  0
 28 29  1  0
 29 30  1  0
 29 31  1  0
 22 32  2  0
 15 33  2  0
 33 34  1  0
  7 35  2  0
 35 36  1  0
 36  4  2  0
 34 12  2  0
 32 17  1  0
 28 23  1  0
  1 37  1  0
  1 38  1  0
  3 39  1  0
  3 40  1  0
  3 41  1  0
  5 42  1  0
  6 43  1  0
  8 44  1  0
  9 45  1  0
  9 46  1  0
 13 47  1  0
 14 48  1  0
 16 49  1  0
 19 50  1  0
 24 51  1  0
 27 52  1  0
 27 53  1  0
 27 54  1  0
 29 55  1  0
 30 56  1  0
 30 57  1  0
 30 58  1  0
 31 59  1  0
 31 60  1  0
 31 61  1  0
 33 62  1  0
 34 63  1  0
 35 64  1  0
 36 65  1  0
M  END
>  <meeko>  (1) 
{"is_sidechain": false}

>  <smiles>  (1) 
C=C(C)c1ccc(NCC(=O)c2ccc(Nc3ncc(F)c(-c4cnc(C)n4C(C)C)n3)cc2)cc1

>  <vina_score>  (1) 
-9.131

>  <job_id>  (1) 
eab4a1752b06ebfe

$$$$
