
     RDKit          3D

 47 49  0  0  0  0  0  0  0  0999 V2000
   50.7730   80.9960   21.9410 C   0  0  0  0  0  0  0  0  0  0  0  0
   52.1450   81.6110   22.2040 C   0  0  0  0  0  0  0  0  0  0  0  0
   52.9400   81.7290   20.9060 C   0  0  0  0  0  0  0  0  0  0  0  0
   52.8630   80.8090   23.1880 N   0  0  0  0  0  0  0  0  0  0  0  0
   53.2860   81.3590   24.3730 C   0  0  0  0  0  0  0  0  0  0  0  0
   53.0540   82.5250   24.6770 O   0  0  0  0  0  0  0  0  0  0  0  0
   53.9810   80.4920   25.2000 N   0  0  0  0  0  0  0  0  0  0  0  0
   54.0590   79.0900   24.8050 C   0  0  0  0  0  0  0  0  0  0  0  0
   53.1550   78.1960   25.6580 C   0  0  0  0  0  0  0  0  0  0  0  0
   53.2540   78.4740   27.1640 C   0  0  0  0  0  0  0  0  0  0  0  0
   54.6660   78.7210   27.5960 C   0  0  0  0  0  0  0  0  0  0  0  0
   55.3520   77.8290   28.3890 C   0  0  0  0  0  0  0  0  0  0  0  0
   56.6120   78.0240   28.8200 N   0  0  0  0  0  0  0  0  0  0  0  0
   57.2230   79.1540   28.4490 C   0  0  0  0  0  0  0  0  0  0  0  0
   58.5240   79.4550   28.8390 N   0  0  0  0  0  0  0  0  0  0  0  0
   59.0830   80.3060   29.7970 C   0  0  0  0  0  0  0  0  0  0  0  0
   59.9790   81.3390   29.4980 C   0  0  0  0  0  0  0  0  0  0  0  0
   60.5050   82.1590   30.5040 C   0  0  0  0  0  0  0  0  0  0  0  0
   60.1380   81.9540   31.8290 C   0  0  0  0  0  0  0  0  0  0  0  0
   60.7830   82.9600   33.0660 Cl  0  0  0  0  0  0  0  0  0  0  0  0
   59.2490   80.9350   32.1560 C   0  0  0  0  0  0  0  0  0  0  0  0
   58.7280   80.1200   31.1460 C   0  0  0  0  0  0  0  0  0  0  0  0
   56.6380   80.0830   27.6750 N   0  0  0  0  0  0  0  0  0  0  0  0
   55.3670   79.8700   27.2570 C   0  0  0  0  0  0  0  0  0  0  0  0
   54.7790   80.9390   26.3530 C   0  0  0  0  0  0  0  0  0  0  0  0
   50.2804   80.7752   22.8994 H   0  0  0  0  0  0  0  0  0  0  0  0
   50.1576   81.7044   21.3670 H   0  0  0  0  0  0  0  0  0  0  0  0
   50.8923   80.0652   21.3670 H   0  0  0  0  0  0  0  0  0  0  0  0
   52.0127   82.6259   22.6072 H   0  0  0  0  0  0  0  0  0  0  0  0
   54.0031   81.8868   21.1402 H   0  0  0  0  0  0  0  0  0  0  0  0
   52.8267   80.8042   20.3213 H   0  0  0  0  0  0  0  0  0  0  0  0
   52.5630   82.5810   20.3213 H   0  0  0  0  0  0  0  0  0  0  0  0
   53.4840   80.1120   22.8050 H   0  0  0  0  0  0  0  0  0  0  0  0
   53.7528   79.0013   23.7522 H   0  0  0  0  0  0  0  0  0  0  0  0
   55.0970   78.7562   24.9503 H   0  0  0  0  0  0  0  0  0  0  0  0
   52.1130   78.3553   25.3435 H   0  0  0  0  0  0  0  0  0  0  0  0
   53.4880   77.1595   25.5005 H   0  0  0  0  0  0  0  0  0  0  0  0
   52.6492   79.3614   27.4020 H   0  0  0  0  0  0  0  0  0  0  0  0
   52.8849   77.5865   27.6988 H   0  0  0  0  0  0  0  0  0  0  0  0
   54.8402   76.9023   28.6880 H   0  0  0  0  0  0  0  0  0  0  0  0
   59.1640   78.9200   28.2700 H   0  0  0  0  0  0  0  0  0  0  0  0
   60.2757   81.5100   28.4527 H   0  0  0  0  0  0  0  0  0  0  0  0
   61.2080   82.9647   30.2459 H   0  0  0  0  0  0  0  0  0  0  0  0
   58.9573   80.7712   33.2039 H   0  0  0  0  0  0  0  0  0  0  0  0
   58.0256   79.3163   31.4117 H   0  0  0  0  0  0  0  0  0  0  0  0
   54.1320   81.5760   26.9741 H   0  0  0  0  0  0  0  0  0  0  0  0
   55.6515   81.4423   25.9109 H   0  0  0  0  0  0  0  0  0  0  0  0
  1  2  1  0
  2  3  1  0
  2  4  1  0
  4  5  1  0
  5  6  2  0
  5  7  1  0
  7  8  1  0
  8  9  1  0
  9 10  1  0
 10 11  1  0
 11 12  2  0
 12 13  1  0
 13 14  2  0
 14 15  1  0
 15 16  1  0
 16 17  1  0
 17 18  2  0
 18 19  1  0
 19 20  1  0
 19 21  2  0
 21 22  1  0
 14 23  1  0
 23 24  2  0
 24 25  1  0
 25  7  1  0
 24 11  1  0
 22 16  2  0
  1 26  1  0
  1 27  1  0
  1 28  1  0
  2 29  1  0
  3 30  1  0
  3 31  1  0
  3 32  1  0
  4 33  1  0
  8 34  1  0
  8 35  1  0
  9 36  1  0
  9 37  1  0
 10 38  1  0
 10 39  1  0
 12 40  1  0
 15 41  1  0
 17 42  1  0
 18 43  1  0
 21 44  1  0
 22 45  1  0
 25 46  1  0
 25 47  1  0
M  END
>  <meeko>  (1) 
{"is_sidechain": false}

>  <smiles>  (1) 
CC(C)NC(=O)N1CCCc2cnc(Nc3ccc(Cl)cc3)nc2C1

>  <vina_score>  (1) 
-6.538

>  <job_id>  (1) 
eac6a40305891df4

$$$$
