
     RDKit          3D

 40 43  0  0  0  0  0  0  0  0999 V2000
   60.0280   83.6810   30.6470 O   0  0  0  0  0  0  0  0  0  0  0  0
   60.8650   82.8610   31.0240 C   0  0  0  0  0  0  0  0  0  0  0  0
   60.7040   81.4870   30.9350 N   0  0  0  0  0  0  0  0  0  0  0  0
   59.5930   80.7920   30.4170 C   0  0  0  0  0  0  0  0  0  0  0  0
   58.6950   80.2350   31.3230 C   0  0  0  0  0  0  0  0  0  0  0  0
   57.5750   79.5350   30.8630 C   0  0  0  0  0  0  0  0  0  0  0  0
   57.3660   79.3980   29.4970 C   0  0  0  0  0  0  0  0  0  0  0  0
   56.2600   78.7070   28.9740 N   0  0  0  0  0  0  0  0  0  0  0  0
   55.8980   77.4090   29.5190 C   0  0  0  0  0  0  0  0  0  0  0  0
   54.7020   77.0300   28.7090 C   0  0  0  0  0  0  0  0  0  0  0  0
   53.9170   75.8930   28.7700 C   0  0  0  0  0  0  0  0  0  0  0  0
   52.8400   75.7880   27.8820 C   0  0  0  0  0  0  0  0  0  0  0  0
   52.5640   76.8100   26.9530 C   0  0  0  0  0  0  0  0  0  0  0  0
   53.3620   77.9540   26.9000 C   0  0  0  0  0  0  0  0  0  0  0  0
   54.4200   78.0340   27.7870 C   0  0  0  0  0  0  0  0  0  0  0  0
   55.4100   79.1070   27.9510 C   0  0  0  0  0  0  0  0  0  0  0  0
   55.4020   80.1160   27.2700 O   0  0  0  0  0  0  0  0  0  0  0  0
   58.2280   79.9320   28.6000 N   0  0  0  0  0  0  0  0  0  0  0  0
   59.3100   80.6100   29.0700 C   0  0  0  0  0  0  0  0  0  0  0  0
   62.2370   83.2600   31.6580 C   0  0  0  0  0  0  0  0  0  0  0  0
   63.5260   82.6720   31.0200 C   0  0  0  0  0  0  0  0  0  0  0  0
   63.6620   83.9780   30.2180 C   0  0  0  0  0  0  0  0  0  0  0  0
   62.7970   84.6610   31.2910 C   0  0  0  0  0  0  0  0  0  0  0  0
   61.4620   80.9160   31.2890 H   0  0  0  0  0  0  0  0  0  0  0  0
   58.8667   80.3457   32.4039 H   0  0  0  0  0  0  0  0  0  0  0  0
   56.8643   79.0958   31.5786 H   0  0  0  0  0  0  0  0  0  0  0  0
   56.7130   76.6823   29.3856 H   0  0  0  0  0  0  0  0  0  0  0  0
   55.7011   77.4313   30.6010 H   0  0  0  0  0  0  0  0  0  0  0  0
   54.1327   75.0945   29.4952 H   0  0  0  0  0  0  0  0  0  0  0  0
   52.1997   74.8940   27.9102 H   0  0  0  0  0  0  0  0  0  0  0  0
   51.7130   76.7058   26.2639 H   0  0  0  0  0  0  0  0  0  0  0  0
   53.1573   78.7606   26.1806 H   0  0  0  0  0  0  0  0  0  0  0  0
   60.0055   81.0418   28.3353 H   0  0  0  0  0  0  0  0  0  0  0  0
   61.9329   82.9986   32.6823 H   0  0  0  0  0  0  0  0  0  0  0  0
   64.3438   82.4860   31.7317 H   0  0  0  0  0  0  0  0  0  0  0  0
   63.5239   81.6909   30.5226 H   0  0  0  0  0  0  0  0  0  0  0  0
   64.6892   84.3646   30.1446 H   0  0  0  0  0  0  0  0  0  0  0  0
   63.3998   84.0274   29.1509 H   0  0  0  0  0  0  0  0  0  0  0  0
   63.3678   85.1492   32.0946 H   0  0  0  0  0  0  0  0  0  0  0  0
   62.1286   85.4981   31.0411 H   0  0  0  0  0  0  0  0  0  0  0  0
  1  2  2  0
  2  3  1  0
  3  4  1  0
  4  5  2  0
  5  6  1  0
  6  7  2  0
  7  8  1  0
  8  9  1  0
  9 10  1  0
 10 11  2  0
 11 12  1  0
 12 13  2  0
 13 14  1  0
 14 15  2  0
 15 16  1  0
 16 17  2  0
  7 18  1  0
 18 19  2  0
  2 20  1  0
 20 21  1  0
 21 22  1  0
 22 23  1  0
 19  4  1  0
 23 20  1  0
 16  8  1  0
 15 10  1  0
  3 24  1  0
  5 25  1  0
  6 26  1  0
  9 27  1  0
  9 28  1  0
 11 29  1  0
 12 30  1  0
 13 31  1  0
 14 32  1  0
 19 33  1  0
 20 34  1  0
 21 35  1  0
 21 36  1  0
 22 37  1  0
 22 38  1  0
 23 39  1  0
 23 40  1  0
M  END
>  <meeko>  (1) 
{"is_sidechain": false}

>  <smiles>  (1) 
O=C(Nc1ccc(N2Cc3ccccc3C2=O)nc1)C1CCC1

>  <vina_score>  (1) 
-8.068

>  <job_id>  (1) 
ead55489bfbb2eda

$$$$
