
     RDKit          3D

 41 43  0  0  0  0  0  0  0  0999 V2000
   52.6760   81.6570   24.0320 C   0  0  0  0  0  0  0  0  0  0  0  0
   53.1490   80.4250   24.7160 C   0  0  0  0  0  0  0  0  0  0  0  0
   52.9350   79.2140   24.2470 N   0  0  0  0  0  0  0  0  0  0  0  0
   53.4480   78.3570   25.1720 C   0  0  0  0  0  0  0  0  0  0  0  0
   54.0060   79.0330   26.2390 C   0  0  0  0  0  0  0  0  0  0  0  0
   54.6330   78.4850   27.4350 C   0  0  0  0  0  0  0  0  0  0  0  0
   53.9500   77.6570   28.2940 C   0  0  0  0  0  0  0  0  0  0  0  0
   54.6630   77.2350   29.3850 C   0  0  0  0  0  0  0  0  0  0  0  0
   55.9370   77.5950   29.6230 N   0  0  0  0  0  0  0  0  0  0  0  0
   56.5210   78.4220   28.7400 C   0  0  0  0  0  0  0  0  0  0  0  0
   57.8450   78.7420   29.0210 N   0  0  0  0  0  0  0  0  0  0  0  0
   58.4680   79.8510   29.6050 C   0  0  0  0  0  0  0  0  0  0  0  0
   58.5180   79.9300   31.0070 C   0  0  0  0  0  0  0  0  0  0  0  0
   59.1590   80.9900   31.6550 C   0  0  0  0  0  0  0  0  0  0  0  0
   59.7700   81.9920   30.9100 C   0  0  0  0  0  0  0  0  0  0  0  0
   59.7410   81.9290   29.5200 C   0  0  0  0  0  0  0  0  0  0  0  0
   59.1000   80.8640   28.8770 C   0  0  0  0  0  0  0  0  0  0  0  0
   55.9010   78.8800   27.6460 N   0  0  0  0  0  0  0  0  0  0  0  0
   53.8420   80.3770   25.9160 N   0  0  0  0  0  0  0  0  0  0  0  0
   54.3790   81.5080   26.6760 C   0  0  0  0  0  0  0  0  0  0  0  0
   53.3100   82.4820   27.1670 C   0  0  0  0  0  0  0  0  0  0  0  0
   55.5140   82.2190   25.9350 C   0  0  0  0  0  0  0  0  0  0  0  0
   52.3883   82.4064   24.7840 H   0  0  0  0  0  0  0  0  0  0  0  0
   53.4833   82.0601   23.4029 H   0  0  0  0  0  0  0  0  0  0  0  0
   51.8064   81.4162   23.4029 H   0  0  0  0  0  0  0  0  0  0  0  0
   53.4213   77.2611   25.0807 H   0  0  0  0  0  0  0  0  0  0  0  0
   52.9069   77.3553   28.1181 H   0  0  0  0  0  0  0  0  0  0  0  0
   54.1675   76.5665   30.1044 H   0  0  0  0  0  0  0  0  0  0  0  0
   58.4260   77.9400   28.8300 H   0  0  0  0  0  0  0  0  0  0  0  0
   58.0425   79.1407   31.6077 H   0  0  0  0  0  0  0  0  0  0  0  0
   59.1799   81.0311   32.7540 H   0  0  0  0  0  0  0  0  0  0  0  0
   60.2731   82.8292   31.4158 H   0  0  0  0  0  0  0  0  0  0  0  0
   60.2233   82.7186   28.9251 H   0  0  0  0  0  0  0  0  0  0  0  0
   59.0932   80.8229   27.7778 H   0  0  0  0  0  0  0  0  0  0  0  0
   54.8129   81.0674   27.5857 H   0  0  0  0  0  0  0  0  0  0  0  0
   53.2998   82.4913   28.2669 H   0  0  0  0  0  0  0  0  0  0  0  0
   53.5350   83.4920   26.7939 H   0  0  0  0  0  0  0  0  0  0  0  0
   52.3252   82.1642   26.7939 H   0  0  0  0  0  0  0  0  0  0  0  0
   56.2114   82.6559   26.6650 H   0  0  0  0  0  0  0  0  0  0  0  0
   56.0500   81.4949   25.3038 H   0  0  0  0  0  0  0  0  0  0  0  0
   55.0964   83.0172   25.3038 H   0  0  0  0  0  0  0  0  0  0  0  0
  1  2  1  0
  2  3  2  0
  3  4  1  0
  4  5  2  0
  5  6  1  0
  6  7  1  0
  7  8  2  0
  8  9  1  0
  9 10  2  0
 10 11  1  0
 11 12  1  0
 12 13  2  0
 13 14  1  0
 14 15  2  0
 15 16  1  0
 16 17  2  0
 10 18  1  0
  5 19  1  0
 19 20  1  0
 20 21  1  0
 20 22  1  0
 19  2  1  0
 18  6  2  0
 17 12  1  0
  1 23  1  0
  1 24  1  0
  1 25  1  0
  4 26  1  0
  7 27  1  0
  8 28  1  0
 11 29  1  0
 13 30  1  0
 14 31  1  0
 15 32  1  0
 16 33  1  0
 17 34  1  0
 20 35  1  0
 21 36  1  0
 21 37  1  0
 21 38  1  0
 22 39  1  0
 22 40  1  0
 22 41  1  0
M  END
>  <meeko>  (1) 
{"is_sidechain": false}

>  <smiles>  (1) 
Cc1ncc(-c2ccnc(Nc3ccccc3)n2)n1C(C)C

>  <vina_score>  (1) 
-8.337

>  <job_id>  (1) 
eaecd7b74b0f7867

$$$$
