
     RDKit          3D

 36 38  0  0  0  0  0  0  0  0999 V2000
   59.6850   83.0510   34.0200 N   0  0  0  0  0  0  0  0  0  0  0  0
   60.3310   83.4000   32.5110 S   0  0  0  0  0  0  0  0  0  0  0  0
   61.7540   83.1800   32.6270 O   0  0  0  0  0  0  0  0  0  0  0  0
   59.7720   84.6750   32.1280 O   0  0  0  0  0  0  0  0  0  0  0  0
   59.6250   82.1280   31.5070 C   0  0  0  0  0  0  0  0  0  0  0  0
   60.0060   82.0070   30.1700 C   0  0  0  0  0  0  0  0  0  0  0  0
   59.4610   80.9830   29.3910 C   0  0  0  0  0  0  0  0  0  0  0  0
   58.5410   80.0690   29.9280 C   0  0  0  0  0  0  0  0  0  0  0  0
   58.0530   79.0360   29.1100 N   0  0  0  0  0  0  0  0  0  0  0  0
   56.7490   78.6410   28.7680 C   0  0  0  0  0  0  0  0  0  0  0  0
   56.1490   77.5930   29.4780 C   0  0  0  0  0  0  0  0  0  0  0  0
   54.8660   77.1330   29.1520 C   0  0  0  0  0  0  0  0  0  0  0  0
   54.1320   77.7030   28.1030 C   0  0  0  0  0  0  0  0  0  0  0  0
   52.7560   77.2000   27.7360 C   0  0  0  0  0  0  0  0  0  0  0  0
   52.4230   75.7340   27.8880 C   0  0  0  0  0  0  0  0  0  0  0  0
   52.5600   76.3250   26.5200 C   0  0  0  0  0  0  0  0  0  0  0  0
   54.7550   78.7380   27.3920 C   0  0  0  0  0  0  0  0  0  0  0  0
   54.1090   79.3140   26.3650 F   0  0  0  0  0  0  0  0  0  0  0  0
   56.0330   79.2010   27.7090 C   0  0  0  0  0  0  0  0  0  0  0  0
   58.1890   80.2010   31.2790 C   0  0  0  0  0  0  0  0  0  0  0  0
   58.7250   81.2230   32.0700 C   0  0  0  0  0  0  0  0  0  0  0  0
   58.7610   83.4750   34.1070 H   0  0  0  0  0  0  0  0  0  0  0  0
   60.3390   83.3320   34.7500 H   0  0  0  0  0  0  0  0  0  0  0  0
   60.7290   82.7116   29.7332 H   0  0  0  0  0  0  0  0  0  0  0  0
   59.7588   80.8914   28.3361 H   0  0  0  0  0  0  0  0  0  0  0  0
   58.7770   78.4370   28.7270 H   0  0  0  0  0  0  0  0  0  0  0  0
   56.6958   77.1217   30.3080 H   0  0  0  0  0  0  0  0  0  0  0  0
   54.4261   76.3078   29.7312 H   0  0  0  0  0  0  0  0  0  0  0  0
   52.3204   78.1445   28.0942 H   0  0  0  0  0  0  0  0  0  0  0  0
   53.1843   75.0339   28.2625 H   0  0  0  0  0  0  0  0  0  0  0  0
   51.6408   75.1663   28.4133 H   0  0  0  0  0  0  0  0  0  0  0  0
   53.4219   76.0586   25.8905 H   0  0  0  0  0  0  0  0  0  0  0  0
   51.9198   76.3702   25.6266 H   0  0  0  0  0  0  0  0  0  0  0  0
   56.4799   80.0146   27.1188 H   0  0  0  0  0  0  0  0  0  0  0  0
   57.4791   79.4886   31.7246 H   0  0  0  0  0  0  0  0  0  0  0  0
   58.4388   81.3123   33.1283 H   0  0  0  0  0  0  0  0  0  0  0  0
  1  2  1  0
  2  3  2  0
  2  4  2  0
  2  5  1  0
  5  6  1  0
  6  7  2  0
  7  8  1  0
  8  9  1  0
  9 10  1  0
 10 11  1  0
 11 12  2  0
 12 13  1  0
 13 14  1  0
 14 15  1  0
 15 16  1  0
 13 17  2  0
 17 18  1  0
 17 19  1  0
  8 20  2  0
 20 21  1  0
 21  5  2  0
 19 10  2  0
 16 14  1  0
  1 22  1  0
  1 23  1  0
  6 24  1  0
  7 25  1  0
  9 26  1  0
 11 27  1  0
 12 28  1  0
 14 29  1  0
 15 30  1  0
 15 31  1  0
 16 32  1  0
 16 33  1  0
 19 34  1  0
 20 35  1  0
 21 36  1  0
M  END
>  <meeko>  (1) 
{"is_sidechain": false}

>  <smiles>  (1) 
NS(=O)(=O)c1ccc(Nc2ccc(C3CC3)c(F)c2)cc1

>  <vina_score>  (1) 
-8.256

>  <job_id>  (1) 
eb1bd0e6bf473a57

$$$$
