
     RDKit          3D

 37 38  0  0  0  0  0  0  0  0999 V2000
   52.5530   75.2280   26.8960 C   0  0  0  0  0  0  0  0  0  0  0  0
   52.6250   76.7200   26.6990 C   0  0  0  0  0  0  0  0  0  0  0  0
   52.5600   77.2180   25.5740 O   0  0  0  0  0  0  0  0  0  0  0  0
   52.7810   77.5800   27.9370 C   0  0  0  0  0  0  0  0  0  0  0  0
   54.2090   77.9920   28.1860 C   0  0  0  0  0  0  0  0  0  0  0  0
   54.9810   77.3250   29.1430 C   0  0  0  0  0  0  0  0  0  0  0  0
   56.3100   77.6970   29.3660 C   0  0  0  0  0  0  0  0  0  0  0  0
   56.9030   78.7390   28.6430 C   0  0  0  0  0  0  0  0  0  0  0  0
   58.2300   79.1000   28.9300 N   0  0  0  0  0  0  0  0  0  0  0  0
   58.7780   80.0920   29.7620 C   0  0  0  0  0  0  0  0  0  0  0  0
   59.6280   81.0990   29.2890 C   0  0  0  0  0  0  0  0  0  0  0  0
   60.1830   82.0440   30.1590 C   0  0  0  0  0  0  0  0  0  0  0  0
   59.9020   81.9740   31.5230 C   0  0  0  0  0  0  0  0  0  0  0  0
   60.5750   83.1840   32.6220 S   0  0  0  0  0  0  0  0  0  0  0  0
   59.6850   82.9150   34.0200 N   0  0  0  0  0  0  0  0  0  0  0  0
   60.2040   84.5020   32.1640 O   0  0  0  0  0  0  0  0  0  0  0  0
   61.9380   82.8300   32.9450 O   0  0  0  0  0  0  0  0  0  0  0  0
   59.0540   80.9830   32.0190 C   0  0  0  0  0  0  0  0  0  0  0  0
   58.5030   80.0460   31.1390 C   0  0  0  0  0  0  0  0  0  0  0  0
   56.1210   79.4070   27.6950 C   0  0  0  0  0  0  0  0  0  0  0  0
   54.7900   79.0380   27.4630 C   0  0  0  0  0  0  0  0  0  0  0  0
   52.5420   75.0003   27.9721 H   0  0  0  0  0  0  0  0  0  0  0  0
   51.6351   74.8405   26.4298 H   0  0  0  0  0  0  0  0  0  0  0  0
   53.4293   74.7539   26.4298 H   0  0  0  0  0  0  0  0  0  0  0  0
   52.1700   78.4865   27.8145 H   0  0  0  0  0  0  0  0  0  0  0  0
   52.4540   76.9809   28.7997 H   0  0  0  0  0  0  0  0  0  0  0  0
   54.5393   76.5021   29.7241 H   0  0  0  0  0  0  0  0  0  0  0  0
   56.9007   77.1611   30.1235 H   0  0  0  0  0  0  0  0  0  0  0  0
   58.9230   78.5050   28.4890 H   0  0  0  0  0  0  0  0  0  0  0  0
   59.8634   81.1481   28.2156 H   0  0  0  0  0  0  0  0  0  0  0  0
   60.8373   82.8376   29.7691 H   0  0  0  0  0  0  0  0  0  0  0  0
   60.2290   83.1970   34.8350 H   0  0  0  0  0  0  0  0  0  0  0  0
   58.7800   83.3810   33.9490 H   0  0  0  0  0  0  0  0  0  0  0  0
   58.8209   80.9391   33.0931 H   0  0  0  0  0  0  0  0  0  0  0  0
   57.8426   79.2590   31.5320 H   0  0  0  0  0  0  0  0  0  0  0  0
   56.5592   80.2370   27.1214 H   0  0  0  0  0  0  0  0  0  0  0  0
   54.1980   79.5747   26.7070 H   0  0  0  0  0  0  0  0  0  0  0  0
  1  2  1  0
  2  3  2  0
  2  4  1  0
  4  5  1  0
  5  6  1  0
  6  7  2  0
  7  8  1  0
  8  9  1  0
  9 10  1  0
 10 11  1  0
 11 12  2  0
 12 13  1  0
 13 14  1  0
 14 15  1  0
 14 16  2  0
 14 17  2  0
 13 18  2  0
 18 19  1  0
  8 20  2  0
 20 21  1  0
 21  5  2  0
 19 10  2  0
  1 22  1  0
  1 23  1  0
  1 24  1  0
  4 25  1  0
  4 26  1  0
  6 27  1  0
  7 28  1  0
  9 29  1  0
 11 30  1  0
 12 31  1  0
 15 32  1  0
 15 33  1  0
 18 34  1  0
 19 35  1  0
 20 36  1  0
 21 37  1  0
M  END
>  <meeko>  (1) 
{"is_sidechain": false}

>  <smiles>  (1) 
CC(=O)Cc1ccc(Nc2ccc(S(N)(=O)=O)cc2)cc1

>  <vina_score>  (1) 
-7.961

>  <job_id>  (1) 
eb572d8090295f1b

$$$$
