
     RDKit          3D

 42 43  0  0  0  0  0  0  0  0999 V2000
   52.6950   81.3840   23.8750 C   0  0  0  0  0  0  0  0  0  0  0  0
   53.2220   80.3270   24.7760 C   0  0  0  0  0  0  0  0  0  0  0  0
   53.0270   79.0430   24.5700 N   0  0  0  0  0  0  0  0  0  0  0  0
   53.6850   78.3960   25.5720 C   0  0  0  0  0  0  0  0  0  0  0  0
   54.3130   79.2830   26.4260 C   0  0  0  0  0  0  0  0  0  0  0  0
   55.1580   78.9910   27.5820 C   0  0  0  0  0  0  0  0  0  0  0  0
   56.3070   79.7030   27.6460 N   0  0  0  0  0  0  0  0  0  0  0  0
   57.1360   79.4440   28.6700 C   0  0  0  0  0  0  0  0  0  0  0  0
   58.2860   80.2170   28.6650 N   0  0  0  0  0  0  0  0  0  0  0  0
   58.9470   80.8800   29.6520 C   0  0  0  0  0  0  0  0  0  0  0  0
   60.3160   81.7320   29.1530 S   0  0  0  0  0  0  0  0  0  0  0  0
   58.4280   80.9260   31.0990 C   0  0  0  0  0  0  0  0  0  0  0  0
   59.3100   80.2310   32.1420 C   0  0  0  0  0  0  0  0  0  0  0  0
   58.1860   82.3800   31.5170 C   0  0  0  0  0  0  0  0  0  0  0  0
   56.8920   78.5370   29.6210 N   0  0  0  0  0  0  0  0  0  0  0  0
   55.7410   77.8390   29.5190 C   0  0  0  0  0  0  0  0  0  0  0  0
   54.8330   78.0250   28.5090 C   0  0  0  0  0  0  0  0  0  0  0  0
   53.7070   77.3030   28.4570 F   0  0  0  0  0  0  0  0  0  0  0  0
   53.9570   80.5360   25.9320 N   0  0  0  0  0  0  0  0  0  0  0  0
   54.2820   81.8190   26.5600 C   0  0  0  0  0  0  0  0  0  0  0  0
   53.0660   82.6920   26.8830 C   0  0  0  0  0  0  0  0  0  0  0  0
   55.3380   82.5930   25.7710 C   0  0  0  0  0  0  0  0  0  0  0  0
   52.2843   82.2078   24.4772 H   0  0  0  0  0  0  0  0  0  0  0  0
   53.5090   81.7642   23.2403 H   0  0  0  0  0  0  0  0  0  0  0  0
   51.9015   80.9627   23.2403 H   0  0  0  0  0  0  0  0  0  0  0  0
   53.7131   77.3024   25.6873 H   0  0  0  0  0  0  0  0  0  0  0  0
   58.7050   80.2720   27.7470 H   0  0  0  0  0  0  0  0  0  0  0  0
   57.4918   80.3487   31.0835 H   0  0  0  0  0  0  0  0  0  0  0  0
   58.9666   80.5016   33.1514 H   0  0  0  0  0  0  0  0  0  0  0  0
   59.2423   79.1409   32.0116 H   0  0  0  0  0  0  0  0  0  0  0  0
   60.3541   80.5518   32.0116 H   0  0  0  0  0  0  0  0  0  0  0  0
   58.1745   82.4489   32.6148 H   0  0  0  0  0  0  0  0  0  0  0  0
   58.9908   83.0150   31.1182 H   0  0  0  0  0  0  0  0  0  0  0  0
   57.2189   82.7201   31.1182 H   0  0  0  0  0  0  0  0  0  0  0  0
   55.5204   77.0819   30.2859 H   0  0  0  0  0  0  0  0  0  0  0  0
   54.7142   81.5523   27.5357 H   0  0  0  0  0  0  0  0  0  0  0  0
   52.9525   82.7735   27.9741 H   0  0  0  0  0  0  0  0  0  0  0  0
   53.2098   83.6944   26.4535 H   0  0  0  0  0  0  0  0  0  0  0  0
   52.1622   82.2352   26.4535 H   0  0  0  0  0  0  0  0  0  0  0  0
   56.0230   83.0951   26.4700 H   0  0  0  0  0  0  0  0  0  0  0  0
   55.9064   81.8960   25.1376 H   0  0  0  0  0  0  0  0  0  0  0  0
   54.8445   83.3448   25.1376 H   0  0  0  0  0  0  0  0  0  0  0  0
  1  2  1  0
  2  3  2  0
  3  4  1  0
  4  5  2  0
  5  6  1  0
  6  7  2  0
  7  8  1  0
  8  9  1  0
  9 10  1  0
 10 11  2  0
 10 12  1  0
 12 13  1  0
 12 14  1  0
  8 15  2  0
 15 16  1  0
 16 17  2  0
 17 18  1  0
  5 19  1  0
 19 20  1  0
 20 21  1  0
 20 22  1  0
 19  2  1  0
 17  6  1  0
  1 23  1  0
  1 24  1  0
  1 25  1  0
  4 26  1  0
  9 27  1  0
 12 28  1  0
 13 29  1  0
 13 30  1  0
 13 31  1  0
 14 32  1  0
 14 33  1  0
 14 34  1  0
 16 35  1  0
 20 36  1  0
 21 37  1  0
 21 38  1  0
 21 39  1  0
 22 40  1  0
 22 41  1  0
 22 42  1  0
M  END
>  <meeko>  (1) 
{"is_sidechain": false}

>  <smiles>  (1) 
Cc1ncc(-c2nc(NC(=S)C(C)C)ncc2F)n1C(C)C

>  <vina_score>  (1) 
-7.059

>  <job_id>  (1) 
eb8d0c3874c2ffad

$$$$
