
     RDKit          3D

 45 48  0  0  0  0  0  0  0  0999 V2000
   58.1990   78.8990   28.0150 O   0  0  0  0  0  0  0  0  0  0  0  0
   57.8710   79.2120   29.1530 C   0  0  0  0  0  0  0  0  0  0  0  0
   56.8240   78.7200   29.9040 N   0  0  0  0  0  0  0  0  0  0  0  0
   55.8820   77.8150   29.4620 C   0  0  0  0  0  0  0  0  0  0  0  0
   54.8580   78.1440   28.5360 C   0  0  0  0  0  0  0  0  0  0  0  0
   54.1480   76.9830   28.3640 C   0  0  0  0  0  0  0  0  0  0  0  0
   52.9260   76.7620   27.4500 C   0  0  0  0  0  0  0  0  0  0  0  0
   52.5600   75.3570   27.0490 C   0  0  0  0  0  0  0  0  0  0  0  0
   51.6950   76.1070   28.0200 C   0  0  0  0  0  0  0  0  0  0  0  0
   54.7560   76.0490   29.1450 N   0  0  0  0  0  0  0  0  0  0  0  0
   55.8100   76.5310   29.8160 N   0  0  0  0  0  0  0  0  0  0  0  0
   58.7150   80.2130   29.8660 C   0  0  0  0  0  0  0  0  0  0  0  0
   59.5440   81.1050   29.1750 C   0  0  0  0  0  0  0  0  0  0  0  0
   60.3190   82.0290   29.8820 C   0  0  0  0  0  0  0  0  0  0  0  0
   60.2850   82.0740   31.2840 C   0  0  0  0  0  0  0  0  0  0  0  0
   61.1420   83.0840   32.0280 C   0  0  0  0  0  0  0  0  0  0  0  0
   62.1950   83.7340   31.1170 C   0  0  0  0  0  0  0  0  0  0  0  0
   63.0590   84.7180   31.9030 C   0  0  0  0  0  0  0  0  0  0  0  0
   63.6950   84.0830   33.0600 N   0  0  0  0  0  0  0  0  0  0  0  0
   62.6970   83.5110   33.9660 C   0  0  0  0  0  0  0  0  0  0  0  0
   61.8170   82.4760   33.2670 C   0  0  0  0  0  0  0  0  0  0  0  0
   59.4660   81.1610   31.9660 C   0  0  0  0  0  0  0  0  0  0  0  0
   58.6910   80.2350   31.2640 C   0  0  0  0  0  0  0  0  0  0  0  0
   56.7580   78.9740   30.8770 H   0  0  0  0  0  0  0  0  0  0  0  0
   54.6738   79.1183   28.0597 H   0  0  0  0  0  0  0  0  0  0  0  0
   53.1308   77.6986   26.9107 H   0  0  0  0  0  0  0  0  0  0  0  0
   52.1951   75.1532   26.0315 H   0  0  0  0  0  0  0  0  0  0  0  0
   53.0776   74.3864   27.0583 H   0  0  0  0  0  0  0  0  0  0  0  0
   50.6966   76.4525   27.7136 H   0  0  0  0  0  0  0  0  0  0  0  0
   51.3170   75.9130   29.0346 H   0  0  0  0  0  0  0  0  0  0  0  0
   54.5090   75.0740   29.2680 H   0  0  0  0  0  0  0  0  0  0  0  0
   59.5855   81.0787   28.0761 H   0  0  0  0  0  0  0  0  0  0  0  0
   60.9640   82.7300   29.3320 H   0  0  0  0  0  0  0  0  0  0  0  0
   60.4513   83.8696   32.3683 H   0  0  0  0  0  0  0  0  0  0  0  0
   62.8380   82.9492   30.6920 H   0  0  0  0  0  0  0  0  0  0  0  0
   61.6779   84.2813   30.3151 H   0  0  0  0  0  0  0  0  0  0  0  0
   63.8420   85.1129   31.2390 H   0  0  0  0  0  0  0  0  0  0  0  0
   62.4080   85.5244   32.2717 H   0  0  0  0  0  0  0  0  0  0  0  0
   64.3130   83.3390   32.7330 H   0  0  0  0  0  0  0  0  0  0  0  0
   63.2161   83.0266   34.8062 H   0  0  0  0  0  0  0  0  0  0  0  0
   62.0486   84.3274   34.3168 H   0  0  0  0  0  0  0  0  0  0  0  0
   62.4392   81.6234   32.9572 H   0  0  0  0  0  0  0  0  0  0  0  0
   61.0365   82.1447   33.9678 H   0  0  0  0  0  0  0  0  0  0  0  0
   59.4340   81.1748   33.0654 H   0  0  0  0  0  0  0  0  0  0  0  0
   58.0596   79.5206   31.8127 H   0  0  0  0  0  0  0  0  0  0  0  0
  1  2  2  0
  2  3  1  0
  3  4  1  0
  4  5  1  0
  5  6  2  0
  6  7  1  0
  7  8  1  0
  8  9  1  0
  6 10  1  0
 10 11  1  0
  2 12  1  0
 12 13  1  0
 13 14  2  0
 14 15  1  0
 15 16  1  0
 16 17  1  0
 17 18  1  0
 18 19  1  0
 19 20  1  0
 20 21  1  0
 15 22  2  0
 22 23  1  0
 11  4  2  0
 23 12  2  0
  9  7  1  0
 21 16  1  0
  3 24  1  0
  5 25  1  0
  7 26  1  0
  8 27  1  0
  8 28  1  0
  9 29  1  0
  9 30  1  0
 10 31  1  0
 13 32  1  0
 14 33  1  0
 16 34  1  0
 17 35  1  0
 17 36  1  0
 18 37  1  0
 18 38  1  0
 19 39  1  0
 20 40  1  0
 20 41  1  0
 21 42  1  0
 21 43  1  0
 22 44  1  0
 23 45  1  0
M  END
>  <meeko>  (1) 
{"is_sidechain": false}

>  <smiles>  (1) 
O=C(Nc1cc(C2CC2)[nH]n1)c1ccc(C2CCNCC2)cc1

>  <vina_score>  (1) 
-8.306

>  <job_id>  (1) 
ebd6cbb3239b382d

$$$$
