
     RDKit          3D

 63 64  0  0  0  0  0  0  0  0999 V2000
   52.7410   82.8540   24.4400 C   0  0  0  0  0  0  0  0  0  0  0  0
   53.3090   81.6030   23.7760 C   0  0  0  0  0  0  0  0  0  0  0  0
   52.9060   81.5250   22.3090 C   0  0  0  0  0  0  0  0  0  0  0  0
   52.9110   80.1010   24.6900 S   0  0  0  0  0  0  0  0  0  0  0  0
   51.6980   80.3860   25.4430 O   0  0  0  0  0  0  0  0  0  0  0  0
   52.9040   79.0270   23.7100 O   0  0  0  0  0  0  0  0  0  0  0  0
   54.3030   79.8290   25.8480 C   0  0  1  0  0  0  0  0  0  0  0  0
   55.3740   80.9170   25.7710 C   0  0  0  0  0  0  0  0  0  0  0  0
   53.9730   79.5090   27.2260 O   0  0  0  0  0  0  0  0  0  0  0  0
   54.8070   78.6270   27.8730 C   0  0  0  0  0  0  0  0  0  0  0  0
   56.0610   79.0170   28.1370 N   0  0  0  0  0  0  0  0  0  0  0  0
   56.8620   78.1730   28.7970 C   0  0  0  0  0  0  0  0  0  0  0  0
   58.1170   78.6900   29.1020 N   0  0  0  0  0  0  0  0  0  0  0  0
   58.5560   79.8620   29.7250 C   0  0  0  0  0  0  0  0  0  0  0  0
   58.1860   80.0860   31.0630 C   0  0  0  0  0  0  0  0  0  0  0  0
   58.5680   81.2470   31.7430 C   0  0  0  0  0  0  0  0  0  0  0  0
   59.3170   82.2130   31.0740 C   0  0  0  0  0  0  0  0  0  0  0  0
   59.8120   83.6820   31.9410 S   0  0  0  0  0  0  0  0  0  0  0  0
   58.6220   84.2740   32.5360 O   0  0  0  0  0  0  0  0  0  0  0  0
   60.6210   84.4670   31.0190 O   0  0  0  0  0  0  0  0  0  0  0  0
   61.0620   83.0150   33.5410 S   0  0  0  0  0  0  0  0  0  0  0  0
   61.9700   84.1070   33.8740 O   0  0  0  0  0  0  0  0  0  0  0  0
   60.2160   82.4540   34.5850 O   0  0  0  0  0  0  0  0  0  0  0  0
   62.0580   81.6880   32.8390 C   0  0  2  0  0  0  0  0  0  0  0  0
   62.6160   80.7980   33.9460 C   0  0  0  0  0  0  0  0  0  0  0  0
   63.1420   82.3240   31.9480 C   0  0  1  0  0  0  0  0  0  0  0  0
   64.5650   82.1070   32.4510 C   0  0  0  0  0  0  0  0  0  0  0  0
   63.0960   81.7320   30.6450 O   0  0  0  0  0  0  0  0  0  0  0  0
   59.7010   82.0190   29.7480 C   0  0  0  0  0  0  0  0  0  0  0  0
   59.3100   80.8510   29.0820 C   0  0  0  0  0  0  0  0  0  0  0  0
   56.4770   76.9390   29.1440 N   0  0  0  0  0  0  0  0  0  0  0  0
   55.2140   76.5750   28.8420 C   0  0  0  0  0  0  0  0  0  0  0  0
   54.3160   77.3920   28.2020 C   0  0  0  0  0  0  0  0  0  0  0  0
   52.9330   76.9700   27.8900 C   0  0  0  0  0  0  0  0  0  0  0  0
   52.7060   75.6540   28.1640 F   0  0  0  0  0  0  0  0  0  0  0  0
   51.9920   77.6530   28.6030 F   0  0  0  0  0  0  0  0  0  0  0  0
   52.5940   77.1460   26.5830 F   0  0  0  0  0  0  0  0  0  0  0  0
   52.7911   82.7437   25.5333 H   0  0  0  0  0  0  0  0  0  0  0  0
   53.3290   83.7314   24.1327 H   0  0  0  0  0  0  0  0  0  0  0  0
   51.6934   82.9887   24.1327 H   0  0  0  0  0  0  0  0  0  0  0  0
   54.4056   81.6856   23.8027 H   0  0  0  0  0  0  0  0  0  0  0  0
   51.8285   81.3165   22.2354 H   0  0  0  0  0  0  0  0  0  0  0  0
   53.1286   82.4829   21.8162 H   0  0  0  0  0  0  0  0  0  0  0  0
   53.4699   80.7193   21.8162 H   0  0  0  0  0  0  0  0  0  0  0  0
   54.7236   78.8903   25.4582 H   0  0  0  0  0  0  0  0  0  0  0  0
   55.6675   81.2152   26.7883 H   0  0  0  0  0  0  0  0  0  0  0  0
   56.2526   80.5293   25.2346 H   0  0  0  0  0  0  0  0  0  0  0  0
   54.9725   81.7894   25.2346 H   0  0  0  0  0  0  0  0  0  0  0  0
   58.8110   78.1540   28.5950 H   0  0  0  0  0  0  0  0  0  0  0  0
   57.5821   79.3306   31.5871 H   0  0  0  0  0  0  0  0  0  0  0  0
   58.2804   81.3959   32.7942 H   0  0  0  0  0  0  0  0  0  0  0  0
   61.4508   81.0223   32.2080 H   0  0  0  0  0  0  0  0  0  0  0  0
   62.3505   81.2215   34.9258 H   0  0  0  0  0  0  0  0  0  0  0  0
   62.1889   79.7884   33.8550 H   0  0  0  0  0  0  0  0  0  0  0  0
   63.7108   80.7426   33.8550 H   0  0  0  0  0  0  0  0  0  0  0  0
   62.9222   83.4018   31.9499 H   0  0  0  0  0  0  0  0  0  0  0  0
   64.5690   82.1064   33.5510 H   0  0  0  0  0  0  0  0  0  0  0  0
   64.9409   81.1412   32.0824 H   0  0  0  0  0  0  0  0  0  0  0  0
   65.2117   82.9169   32.0824 H   0  0  0  0  0  0  0  0  0  0  0  0
   62.6080   80.8840   30.7070 H   0  0  0  0  0  0  0  0  0  0  0  0
   60.3061   82.7771   29.2292 H   0  0  0  0  0  0  0  0  0  0  0  0
   59.6015   80.7074   28.0311 H   0  0  0  0  0  0  0  0  0  0  0  0
   54.8844   75.5644   29.1251 H   0  0  0  0  0  0  0  0  0  0  0  0
  1  2  1  0
  2  3  1  0
  2  4  1  0
  4  5  2  0
  4  6  2  0
  4  7  1  0
  7  8  1  0
  7  9  1  0
  9 10  1  0
 10 11  2  0
 11 12  1  0
 12 13  1  0
 13 14  1  0
 14 15  1  0
 15 16  2  0
 16 17  1  0
 17 18  1  0
 18 19  2  0
 18 20  2  0
 18 21  1  0
 21 22  2  0
 21 23  2  0
 21 24  1  0
 24 25  1  0
 24 26  1  0
 26 27  1  0
 26 28  1  0
 17 29  2  0
 29 30  1  0
 12 31  2  0
 31 32  1  0
 32 33  2  0
 33 34  1  0
 34 35  1  0
 34 36  1  0
 34 37  1  0
 33 10  1  0
 30 14  2  0
  1 38  1  0
  1 39  1  0
  1 40  1  0
  2 41  1  0
  3 42  1  0
  3 43  1  0
  3 44  1  0
  7 45  1  6
  8 46  1  0
  8 47  1  0
  8 48  1  0
 13 49  1  0
 15 50  1  0
 16 51  1  0
 24 52  1  6
 25 53  1  0
 25 54  1  0
 25 55  1  0
 26 56  1  6
 27 57  1  0
 27 58  1  0
 27 59  1  0
 28 60  1  0
 29 61  1  0
 30 62  1  0
 32 63  1  0
M  END
>  <meeko>  (1) 
{"is_sidechain": false}

>  <smiles>  (1) 
CC(C)S(=O)(=O)[C@@H](C)Oc1nc(Nc2ccc(S(=O)(=O)S(=O)(=O)[C@H](C)[C@@H](C)O)cc2)ncc1C(F)(F)F

>  <vina_score>  (1) 
-8.648

>  <job_id>  (1) 
ec5827fd7701e0b1

$$$$
