
     RDKit          3D

 37 38  0  0  0  0  0  0  0  0999 V2000
   51.4240   76.4820   28.3720 C   0  0  0  0  0  0  0  0  0  0  0  0
   52.6260   76.1050   27.5110 C   0  0  0  0  0  0  0  0  0  0  0  0
   52.1850   75.2240   26.3410 C   0  0  0  0  0  0  0  0  0  0  0  0
   53.3120   77.3700   26.9970 C   0  0  0  0  0  0  0  0  0  0  0  0
   52.9380   77.9370   25.9700 O   0  0  0  0  0  0  0  0  0  0  0  0
   54.4530   77.9550   27.7540 C   0  0  0  0  0  0  0  0  0  0  0  0
   54.9880   77.4070   28.9180 C   0  0  0  0  0  0  0  0  0  0  0  0
   56.0630   78.0400   29.5510 C   0  0  0  0  0  0  0  0  0  0  0  0
   56.5880   79.2150   29.0130 C   0  0  0  0  0  0  0  0  0  0  0  0
   57.7230   79.9450   29.6180 C   0  0  0  0  0  0  0  0  0  0  0  0
   58.6400   80.6810   28.8420 C   0  0  0  0  0  0  0  0  0  0  0  0
   59.7070   81.3690   29.4310 C   0  0  0  0  0  0  0  0  0  0  0  0
   59.8790   81.3220   30.8150 C   0  0  0  0  0  0  0  0  0  0  0  0
   61.2050   82.2150   31.5690 S   0  0  0  0  0  0  0  0  0  0  0  0
   62.5200   81.7320   30.6450 N   0  0  0  0  0  0  0  0  0  0  0  0
   61.4350   81.6950   32.8960 O   0  0  0  0  0  0  0  0  0  0  0  0
   61.0350   83.6260   31.3080 O   0  0  0  0  0  0  0  0  0  0  0  0
   58.9870   80.6070   31.6120 C   0  0  0  0  0  0  0  0  0  0  0  0
   57.9260   79.9220   31.0130 C   0  0  0  0  0  0  0  0  0  0  0  0
   56.0810   79.7540   27.8760 N   0  0  0  0  0  0  0  0  0  0  0  0
   55.0350   79.1230   27.2800 C   0  0  0  0  0  0  0  0  0  0  0  0
   51.6935   76.3975   29.4351 H   0  0  0  0  0  0  0  0  0  0  0  0
   51.1248   77.5171   28.1508 H   0  0  0  0  0  0  0  0  0  0  0  0
   50.5872   75.8032   28.1508 H   0  0  0  0  0  0  0  0  0  0  0  0
   53.3411   75.5361   28.1234 H   0  0  0  0  0  0  0  0  0  0  0  0
   51.7242   74.3034   26.7285 H   0  0  0  0  0  0  0  0  0  0  0  0
   51.4537   75.7695   25.7265 H   0  0  0  0  0  0  0  0  0  0  0  0
   53.0600   74.9655   25.7265 H   0  0  0  0  0  0  0  0  0  0  0  0
   54.5671   76.4812   29.3371 H   0  0  0  0  0  0  0  0  0  0  0  0
   56.4925   77.6129   30.4692 H   0  0  0  0  0  0  0  0  0  0  0  0
   58.5147   80.7157   27.7497 H   0  0  0  0  0  0  0  0  0  0  0  0
   60.4064   81.9438   28.8062 H   0  0  0  0  0  0  0  0  0  0  0  0
   63.2710   82.4180   30.7220 H   0  0  0  0  0  0  0  0  0  0  0  0
   62.7980   80.7850   30.9040 H   0  0  0  0  0  0  0  0  0  0  0  0
   59.1169   80.5819   32.7040 H   0  0  0  0  0  0  0  0  0  0  0  0
   57.2316   79.3503   31.6462 H   0  0  0  0  0  0  0  0  0  0  0  0
   54.6225   79.5668   26.3619 H   0  0  0  0  0  0  0  0  0  0  0  0
  1  2  1  0
  2  3  1  0
  2  4  1  0
  4  5  2  0
  4  6  1  0
  6  7  2  0
  7  8  1  0
  8  9  2  0
  9 10  1  0
 10 11  1  0
 11 12  2  0
 12 13  1  0
 13 14  1  0
 14 15  1  0
 14 16  2  0
 14 17  2  0
 13 18  2  0
 18 19  1  0
  9 20  1  0
 20 21  2  0
 21  6  1  0
 19 10  2  0
  1 22  1  0
  1 23  1  0
  1 24  1  0
  2 25  1  0
  3 26  1  0
  3 27  1  0
  3 28  1  0
  7 29  1  0
  8 30  1  0
 11 31  1  0
 12 32  1  0
 15 33  1  0
 15 34  1  0
 18 35  1  0
 19 36  1  0
 21 37  1  0
M  END
>  <meeko>  (1) 
{"is_sidechain": false}

>  <smiles>  (1) 
CC(C)C(=O)c1ccc(-c2ccc(S(N)(=O)=O)cc2)nc1

>  <vina_score>  (1) 
-7.591

>  <job_id>  (1) 
ec69a9e6e6bb469c

$$$$
