
     RDKit          3D

 33 34  0  0  0  0  0  0  0  0999 V2000
   58.9350   79.9430   30.9620 C   0  0  0  0  0  0  0  0  0  0  0  0
   58.6430   80.0450   29.4880 C   0  0  0  0  0  0  0  0  0  0  0  0
   59.4390   80.5780   28.7180 O   0  0  0  0  0  0  0  0  0  0  0  0
   57.3600   79.4890   28.9640 C   0  0  0  0  0  0  0  0  0  0  0  0
   56.6380   78.5020   29.6440 C   0  0  0  0  0  0  0  0  0  0  0  0
   55.4390   78.0140   29.1100 C   0  0  0  0  0  0  0  0  0  0  0  0
   54.9450   78.5090   27.8980 C   0  0  0  0  0  0  0  0  0  0  0  0
   53.4210   77.8550   27.2450 S   0  0  0  0  0  0  0  0  0  0  0  0
   53.0800   78.9830   25.9050 C   0  0  0  0  0  0  0  0  0  0  0  0
   53.3100   78.5690   24.5870 C   0  0  0  0  0  0  0  0  0  0  0  0
   53.0460   79.4320   23.5190 C   0  0  0  0  0  0  0  0  0  0  0  0
   52.5510   80.7130   23.7750 C   0  0  0  0  0  0  0  0  0  0  0  0
   52.1860   81.7960   22.4250 S   0  0  0  0  0  0  0  0  0  0  0  0
   50.5830   81.4170   22.1030 N   0  0  0  0  0  0  0  0  0  0  0  0
   52.9360   81.3790   21.2640 O   0  0  0  0  0  0  0  0  0  0  0  0
   52.1850   83.1610   22.8980 O   0  0  0  0  0  0  0  0  0  0  0  0
   52.2950   81.1290   25.0840 C   0  0  0  0  0  0  0  0  0  0  0  0
   52.5610   80.2610   26.1470 C   0  0  0  0  0  0  0  0  0  0  0  0
   55.6720   79.4860   27.2130 C   0  0  0  0  0  0  0  0  0  0  0  0
   56.8700   79.9770   27.7450 C   0  0  0  0  0  0  0  0  0  0  0  0
   58.0479   80.2529   31.5338 H   0  0  0  0  0  0  0  0  0  0  0  0
   59.1890   78.9029   31.2144 H   0  0  0  0  0  0  0  0  0  0  0  0
   59.7814   80.5987   31.2144 H   0  0  0  0  0  0  0  0  0  0  0  0
   57.0131   78.1085   30.6003 H   0  0  0  0  0  0  0  0  0  0  0  0
   54.8803   77.2342   29.6483 H   0  0  0  0  0  0  0  0  0  0  0  0
   53.7004   77.5595   24.3909 H   0  0  0  0  0  0  0  0  0  0  0  0
   53.2268   79.1046   22.4845 H   0  0  0  0  0  0  0  0  0  0  0  0
   50.5210   80.8840   21.2350 H   0  0  0  0  0  0  0  0  0  0  0  0
   50.1720   80.9410   22.9070 H   0  0  0  0  0  0  0  0  0  0  0  0
   51.8871   82.1322   25.2767 H   0  0  0  0  0  0  0  0  0  0  0  0
   52.3615   80.5837   27.1795 H   0  0  0  0  0  0  0  0  0  0  0  0
   55.3013   79.8709   26.2515 H   0  0  0  0  0  0  0  0  0  0  0  0
   57.4312   80.7518   27.2021 H   0  0  0  0  0  0  0  0  0  0  0  0
  1  2  1  0
  2  3  2  0
  2  4  1  0
  4  5  1  0
  5  6  2  0
  6  7  1  0
  7  8  1  0
  8  9  1  0
  9 10  1  0
 10 11  2  0
 11 12  1  0
 12 13  1  0
 13 14  1  0
 13 15  2  0
 13 16  2  0
 12 17  2  0
 17 18  1  0
  7 19  2  0
 19 20  1  0
 20  4  2  0
 18  9  2  0
  1 21  1  0
  1 22  1  0
  1 23  1  0
  5 24  1  0
  6 25  1  0
 10 26  1  0
 11 27  1  0
 14 28  1  0
 14 29  1  0
 17 30  1  0
 18 31  1  0
 19 32  1  0
 20 33  1  0
M  END
>  <meeko>  (1) 
{"is_sidechain": false}

>  <smiles>  (1) 
CC(=O)c1ccc(Sc2ccc(S(N)(=O)=O)cc2)cc1

>  <vina_score>  (1) 
-7.818

>  <job_id>  (1) 
ec919ac5ab6fa8ec

$$$$
