
     RDKit          3D

 37 39  0  0  0  0  0  0  0  0999 V2000
   53.6850   78.3570   24.6480 C   0  0  0  0  0  0  0  0  0  0  0  0
   53.3570   79.2350   25.8610 C   0  0  0  0  0  0  0  0  0  0  0  0
   53.1000   78.3770   27.1240 C   0  0  0  0  0  0  0  0  0  0  0  0
   54.4380   78.3890   27.7690 C   0  0  0  0  0  0  0  0  0  0  0  0
   54.9620   77.6320   28.7700 C   0  0  0  0  0  0  0  0  0  0  0  0
   56.2120   77.8350   29.2330 N   0  0  0  0  0  0  0  0  0  0  0  0
   56.9400   78.8310   28.6840 C   0  0  0  0  0  0  0  0  0  0  0  0
   58.2400   79.1070   29.1000 N   0  0  0  0  0  0  0  0  0  0  0  0
   58.8220   80.1100   29.8820 C   0  0  0  0  0  0  0  0  0  0  0  0
   59.6850   81.0890   29.3770 C   0  0  0  0  0  0  0  0  0  0  0  0
   60.2190   82.0850   30.2030 C   0  0  0  0  0  0  0  0  0  0  0  0
   59.8750   82.1170   31.5540 C   0  0  0  0  0  0  0  0  0  0  0  0
   60.5450   83.3860   32.5920 S   0  0  0  0  0  0  0  0  0  0  0  0
   59.6850   83.1400   34.0200 N   0  0  0  0  0  0  0  0  0  0  0  0
   61.9150   83.0500   32.9050 O   0  0  0  0  0  0  0  0  0  0  0  0
   60.1610   84.6680   32.0540 O   0  0  0  0  0  0  0  0  0  0  0  0
   59.0220   81.1530   32.0880 C   0  0  0  0  0  0  0  0  0  0  0  0
   58.4990   80.1630   31.2500 C   0  0  0  0  0  0  0  0  0  0  0  0
   56.4910   79.6300   27.6970 N   0  0  0  0  0  0  0  0  0  0  0  0
   55.2480   79.3790   27.2700 C   0  0  0  0  0  0  0  0  0  0  0  0
   54.5360   80.1720   26.2110 C   0  0  0  0  0  0  0  0  0  0  0  0
   54.0507   77.3782   24.9920 H   0  0  0  0  0  0  0  0  0  0  0  0
   52.7785   78.2171   24.0408 H   0  0  0  0  0  0  0  0  0  0  0  0
   54.4612   78.8457   24.0408 H   0  0  0  0  0  0  0  0  0  0  0  0
   52.4614   79.8105   25.5839 H   0  0  0  0  0  0  0  0  0  0  0  0
   52.3377   78.8343   27.7719 H   0  0  0  0  0  0  0  0  0  0  0  0
   52.7148   77.3691   26.9101 H   0  0  0  0  0  0  0  0  0  0  0  0
   54.3499   76.8330   29.2137 H   0  0  0  0  0  0  0  0  0  0  0  0
   58.8620   78.4510   28.6500 H   0  0  0  0  0  0  0  0  0  0  0  0
   59.9491   81.0756   28.3093 H   0  0  0  0  0  0  0  0  0  0  0  0
   60.9058   82.8379   29.7889 H   0  0  0  0  0  0  0  0  0  0  0  0
   59.2750   82.2090   34.0850 H   0  0  0  0  0  0  0  0  0  0  0  0
   60.2980   83.3420   34.8120 H   0  0  0  0  0  0  0  0  0  0  0  0
   58.7629   81.1706   33.1569 H   0  0  0  0  0  0  0  0  0  0  0  0
   57.8188   79.4078   31.6707 H   0  0  0  0  0  0  0  0  0  0  0  0
   54.1798   81.1361   26.6030 H   0  0  0  0  0  0  0  0  0  0  0  0
   55.1675   80.4374   25.3503 H   0  0  0  0  0  0  0  0  0  0  0  0
  1  2  1  0
  2  3  1  0
  3  4  1  0
  4  5  2  0
  5  6  1  0
  6  7  2  0
  7  8  1  0
  8  9  1  0
  9 10  1  0
 10 11  2  0
 11 12  1  0
 12 13  1  0
 13 14  1  0
 13 15  2  0
 13 16  2  0
 12 17  2  0
 17 18  1  0
  7 19  1  0
 19 20  2  0
 20 21  1  0
 21  2  1  0
 20  4  1  0
 18  9  2  0
  1 22  1  0
  1 23  1  0
  1 24  1  0
  2 25  1  0
  3 26  1  0
  3 27  1  0
  5 28  1  0
  8 29  1  0
 10 30  1  0
 11 31  1  0
 14 32  1  0
 14 33  1  0
 17 34  1  0
 18 35  1  0
 21 36  1  0
 21 37  1  0
M  END
>  <meeko>  (1) 
{"is_sidechain": false}

>  <smiles>  (1) 
CC1Cc2cnc(Nc3ccc(S(N)(=O)=O)cc3)nc2C1

>  <vina_score>  (1) 
-8.065

>  <job_id>  (1) 
eca7afcbf29b9848

$$$$
