
     RDKit          3D

 43 45  0  0  0  0  0  0  0  0999 V2000
   56.3240   80.2320   26.9770 C   0  0  0  0  0  0  0  0  0  0  0  0
   55.8240   79.1500   27.8960 C   0  0  0  0  0  0  0  0  0  0  0  0
   54.5250   78.6480   27.6980 C   0  0  0  0  0  0  0  0  0  0  0  0
   54.0190   77.6310   28.5060 C   0  0  0  0  0  0  0  0  0  0  0  0
   54.8100   77.0960   29.5150 C   0  0  0  0  0  0  0  0  0  0  0  0
   56.0990   77.5900   29.7240 C   0  0  0  0  0  0  0  0  0  0  0  0
   56.6170   78.6410   28.9490 C   0  0  0  0  0  0  0  0  0  0  0  0
   57.9470   79.1020   29.1340 N   0  0  0  0  0  0  0  0  0  0  0  0
   58.1700   80.4190   29.5920 N   0  0  0  0  0  0  0  0  0  0  0  0
   58.1850   80.4360   31.0710 C   0  0  0  0  0  0  0  0  0  0  0  0
   59.5800   80.5720   31.6990 C   0  0  0  0  0  0  0  0  0  0  0  0
   60.3100   81.7320   31.1840 N   0  0  0  0  0  0  0  0  0  0  0  0
   61.3890   82.2070   31.9200 C   0  0  0  0  0  0  0  0  0  0  0  0
   61.8070   81.6510   32.9330 O   0  0  0  0  0  0  0  0  0  0  0  0
   62.0770   83.4400   31.4710 C   0  0  0  0  0  0  0  0  0  0  0  0
   61.5810   84.7040   31.8090 C   0  0  0  0  0  0  0  0  0  0  0  0
   62.2590   85.8490   31.3890 C   0  0  0  0  0  0  0  0  0  0  0  0
   63.4350   85.7290   30.6450 C   0  0  0  0  0  0  0  0  0  0  0  0
   63.9420   84.4680   30.3290 C   0  0  0  0  0  0  0  0  0  0  0  0
   63.2680   83.3210   30.7490 C   0  0  0  0  0  0  0  0  0  0  0  0
   59.9950   82.1290   29.8050 C   0  0  0  0  0  0  0  0  0  0  0  0
   59.4080   80.9600   28.9950 C   0  0  0  0  0  0  0  0  0  0  0  0
   56.7114   81.0704   27.5744 H   0  0  0  0  0  0  0  0  0  0  0  0
   57.1283   79.8314   26.3425 H   0  0  0  0  0  0  0  0  0  0  0  0
   55.4977   80.5849   26.3425 H   0  0  0  0  0  0  0  0  0  0  0  0
   53.8996   79.0638   26.8942 H   0  0  0  0  0  0  0  0  0  0  0  0
   52.9982   77.2539   28.3454 H   0  0  0  0  0  0  0  0  0  0  0  0
   54.4215   76.2847   30.1481 H   0  0  0  0  0  0  0  0  0  0  0  0
   56.7232   77.1461   30.5135 H   0  0  0  0  0  0  0  0  0  0  0  0
   58.5940   78.7470   28.4290 H   0  0  0  0  0  0  0  0  0  0  0  0
   57.5729   81.2849   31.4098 H   0  0  0  0  0  0  0  0  0  0  0  0
   57.7926   79.4612   31.3961 H   0  0  0  0  0  0  0  0  0  0  0  0
   59.4688   80.6789   32.7881 H   0  0  0  0  0  0  0  0  0  0  0  0
   60.1549   79.6705   31.4407 H   0  0  0  0  0  0  0  0  0  0  0  0
   60.6600   84.7947   32.4036 H   0  0  0  0  0  0  0  0  0  0  0  0
   61.8677   86.8450   31.6436 H   0  0  0  0  0  0  0  0  0  0  0  0
   63.9637   86.6324   30.3068 H   0  0  0  0  0  0  0  0  0  0  0  0
   64.8724   84.3784   29.7491 H   0  0  0  0  0  0  0  0  0  0  0  0
   63.6727   82.3258   30.5127 H   0  0  0  0  0  0  0  0  0  0  0  0
   59.2624   82.9492   29.8289 H   0  0  0  0  0  0  0  0  0  0  0  0
   60.9288   82.4477   29.3187 H   0  0  0  0  0  0  0  0  0  0  0  0
   59.1830   81.3141   27.9782 H   0  0  0  0  0  0  0  0  0  0  0  0
   60.1546   80.1522   28.9880 H   0  0  0  0  0  0  0  0  0  0  0  0
  1  2  1  0
  2  3  2  0
  3  4  1  0
  4  5  2  0
  5  6  1  0
  6  7  2  0
  7  8  1  0
  8  9  1  0
  9 10  1  0
 10 11  1  0
 11 12  1  0
 12 13  1  0
 13 14  2  0
 13 15  1  0
 15 16  2  0
 16 17  1  0
 17 18  2  0
 18 19  1  0
 19 20  2  0
 12 21  1  0
 21 22  1  0
  7  2  1  0
 22  9  1  0
 20 15  1  0
  1 23  1  0
  1 24  1  0
  1 25  1  0
  3 26  1  0
  4 27  1  0
  5 28  1  0
  6 29  1  0
  8 30  1  0
 10 31  1  0
 10 32  1  0
 11 33  1  0
 11 34  1  0
 16 35  1  0
 17 36  1  0
 18 37  1  0
 19 38  1  0
 20 39  1  0
 21 40  1  0
 21 41  1  0
 22 42  1  0
 22 43  1  0
M  END
>  <meeko>  (1) 
{"is_sidechain": false}

>  <smiles>  (1) 
Cc1ccccc1NN1CCN(C(=O)c2ccccc2)CC1

>  <vina_score>  (1) 
-7.413

>  <job_id>  (1) 
ecc2e64eae72ab40

$$$$
