
     RDKit          3D

 59 62  0  0  0  0  0  0  0  0999 V2000
   53.2470   82.3450   25.0050 C   0  0  0  0  0  0  0  0  0  0  0  0
   52.3580   81.4650   24.1340 C   0  0  0  0  0  0  0  0  0  0  0  0
   52.9350   81.3570   22.7250 C   0  0  0  0  0  0  0  0  0  0  0  0
   52.3190   80.1700   24.7420 O   0  0  0  0  0  0  0  0  0  0  0  0
   52.5460   80.1770   26.1430 C   0  0  0  0  0  0  0  0  0  0  0  0
   53.1650   78.8970   26.7200 C   0  0  0  0  0  0  0  0  0  0  0  0
   52.5860   77.8110   26.7020 O   0  0  0  0  0  0  0  0  0  0  0  0
   54.5320   78.9760   27.3210 C   0  0  0  0  0  0  0  0  0  0  0  0
   54.9310   78.1750   28.3980 C   0  0  0  0  0  0  0  0  0  0  0  0
   56.2290   78.2780   28.9090 C   0  0  0  0  0  0  0  0  0  0  0  0
   57.1460   79.1820   28.3550 C   0  0  0  0  0  0  0  0  0  0  0  0
   58.5600   79.2540   28.8850 C   0  0  0  0  0  0  0  0  0  0  0  0
   58.7690   80.3500   29.9200 C   0  0  0  0  0  0  0  0  0  0  0  0
   58.6850   80.1230   31.1270 O   0  0  0  0  0  0  0  0  0  0  0  0
   59.0100   81.6010   29.3790 N   0  0  0  0  0  0  0  0  0  0  0  0
   59.1950   82.7220   30.1650 C   0  0  0  0  0  0  0  0  0  0  0  0
   58.1920   83.5800   30.5420 N   0  0  0  0  0  0  0  0  0  0  0  0
   58.5970   84.6220   31.2980 N   0  0  0  0  0  0  0  0  0  0  0  0
   59.9240   84.4520   31.4250 C   0  0  0  0  0  0  0  0  0  0  0  0
   60.8720   85.2410   32.0970 C   0  0  0  0  0  0  0  0  0  0  0  0
   62.1910   84.7400   32.0150 C   0  0  0  0  0  0  0  0  0  0  0  0
   62.5470   83.5410   31.3190 C   0  0  0  0  0  0  0  0  0  0  0  0
   63.9300   83.1690   31.3820 N   0  0  0  0  0  0  0  0  0  0  0  0
   64.2810   81.7470   31.1900 C   0  0  0  0  0  0  0  0  0  0  0  0
   65.8060   81.7310   31.2790 C   0  0  0  0  0  0  0  0  0  0  0  0
   66.2990   82.8790   30.4080 C   0  0  0  0  0  0  0  0  0  0  0  0
   65.0520   84.1550   30.5340 S   0  0  0  0  0  0  0  0  0  0  0  0
   65.5000   85.2060   31.4190 O   0  0  0  0  0  0  0  0  0  0  0  0
   64.5590   84.4160   29.1980 O   0  0  0  0  0  0  0  0  0  0  0  0
   61.6130   82.7270   30.6440 C   0  0  0  0  0  0  0  0  0  0  0  0
   60.3260   83.2500   30.7310 C   0  0  0  0  0  0  0  0  0  0  0  0
   56.7420   79.9930   27.2880 C   0  0  0  0  0  0  0  0  0  0  0  0
   55.4470   79.8870   26.7740 C   0  0  0  0  0  0  0  0  0  0  0  0
   53.0397   82.1398   26.0656 H   0  0  0  0  0  0  0  0  0  0  0  0
   54.3033   82.1268   24.7890 H   0  0  0  0  0  0  0  0  0  0  0  0
   53.0396   83.4035   24.7890 H   0  0  0  0  0  0  0  0  0  0  0  0
   51.3488   81.8954   24.0549 H   0  0  0  0  0  0  0  0  0  0  0  0
   54.0146   81.1549   22.7854 H   0  0  0  0  0  0  0  0  0  0  0  0
   52.4379   80.5363   22.1871 H   0  0  0  0  0  0  0  0  0  0  0  0
   52.7683   82.3019   22.1871 H   0  0  0  0  0  0  0  0  0  0  0  0
   53.2227   81.0134   26.3722 H   0  0  0  0  0  0  0  0  0  0  0  0
   51.5535   80.2680   26.6085 H   0  0  0  0  0  0  0  0  0  0  0  0
   54.2213   77.4624   28.8437 H   0  0  0  0  0  0  0  0  0  0  0  0
   56.5333   77.6431   29.7542 H   0  0  0  0  0  0  0  0  0  0  0  0
   58.8073   78.2872   29.3478 H   0  0  0  0  0  0  0  0  0  0  0  0
   59.2124   79.4889   28.0311 H   0  0  0  0  0  0  0  0  0  0  0  0
   59.0780   81.7110   28.3730 H   0  0  0  0  0  0  0  0  0  0  0  0
   57.2070   83.4930   30.3000 H   0  0  0  0  0  0  0  0  0  0  0  0
   60.6120   86.1633   32.6370 H   0  0  0  0  0  0  0  0  0  0  0  0
   62.9912   85.3048   32.5156 H   0  0  0  0  0  0  0  0  0  0  0  0
   63.8361   81.1238   31.9797 H   0  0  0  0  0  0  0  0  0  0  0  0
   63.9069   81.3420   30.2382 H   0  0  0  0  0  0  0  0  0  0  0  0
   66.1280   81.8781   32.3205 H   0  0  0  0  0  0  0  0  0  0  0  0
   66.2154   80.7682   30.9394 H   0  0  0  0  0  0  0  0  0  0  0  0
   67.2666   83.2511   30.7760 H   0  0  0  0  0  0  0  0  0  0  0  0
   66.4498   82.5612   29.3658 H   0  0  0  0  0  0  0  0  0  0  0  0
   61.8694   81.7968   30.1158 H   0  0  0  0  0  0  0  0  0  0  0  0
   57.4468   80.7166   26.8524 H   0  0  0  0  0  0  0  0  0  0  0  0
   55.1421   80.5249   25.9314 H   0  0  0  0  0  0  0  0  0  0  0  0
  1  2  1  0
  2  3  1  0
  2  4  1  0
  4  5  1  0
  5  6  1  0
  6  7  2  0
  6  8  1  0
  8  9  1  0
  9 10  2  0
 10 11  1  0
 11 12  1  0
 12 13  1  0
 13 14  2  0
 13 15  1  0
 15 16  1  0
 16 17  1  0
 17 18  1  0
 18 19  2  0
 19 20  1  0
 20 21  2  0
 21 22  1  0
 22 23  1  0
 23 24  1  0
 24 25  1  0
 25 26  1  0
 26 27  1  0
 27 28  2  0
 27 29  2  0
 22 30  2  0
 30 31  1  0
 11 32  2  0
 32 33  1  0
 33  8  2  0
 31 16  2  0
 31 19  1  0
 27 23  1  0
  1 34  1  0
  1 35  1  0
  1 36  1  0
  2 37  1  0
  3 38  1  0
  3 39  1  0
  3 40  1  0
  5 41  1  0
  5 42  1  0
  9 43  1  0
 10 44  1  0
 12 45  1  0
 12 46  1  0
 15 47  1  0
 17 48  1  0
 20 49  1  0
 21 50  1  0
 24 51  1  0
 24 52  1  0
 25 53  1  0
 25 54  1  0
 26 55  1  0
 26 56  1  0
 30 57  1  0
 32 58  1  0
 33 59  1  0
M  END
>  <meeko>  (1) 
{"is_sidechain": false}

>  <smiles>  (1) 
CC(C)OCC(=O)c1ccc(CC(=O)Nc2[nH]nc3ccc(N4CCCS4(=O)=O)cc23)cc1

>  <vina_score>  (1) 
-8.965

>  <job_id>  (1) 
ecc5111b2f7b65d6

$$$$
