
     RDKit          3D

 37 38  0  0  0  0  0  0  0  0999 V2000
   60.0430   81.2340   30.0600 C   0  0  0  0  0  0  0  0  0  0  0  0
   58.8230   80.3920   30.3200 C   0  0  0  0  0  0  0  0  0  0  0  0
   58.2240   80.4290   31.3900 O   0  0  0  0  0  0  0  0  0  0  0  0
   58.4490   79.6030   29.2580 N   0  0  0  0  0  0  0  0  0  0  0  0
   57.2360   78.8180   29.2840 C   0  0  0  0  0  0  0  0  0  0  0  0
   56.3090   79.2290   28.1690 C   0  0  0  0  0  0  0  0  0  0  0  0
   56.6890   80.2330   27.2700 C   0  0  0  0  0  0  0  0  0  0  0  0
   55.8430   80.6050   26.2210 C   0  0  0  0  0  0  0  0  0  0  0  0
   54.5990   79.9830   26.0370 C   0  0  0  0  0  0  0  0  0  0  0  0
   53.7080   80.3760   24.9310 C   0  0  0  0  0  0  0  0  0  0  0  0
   53.1210   79.4070   24.0970 C   0  0  0  0  0  0  0  0  0  0  0  0
   52.2730   79.7760   23.0490 C   0  0  0  0  0  0  0  0  0  0  0  0
   52.0100   81.1270   22.8210 C   0  0  0  0  0  0  0  0  0  0  0  0
   50.9290   81.5910   21.4940 S   0  0  0  0  0  0  0  0  0  0  0  0
   49.4170   81.3090   22.1810 N   0  0  0  0  0  0  0  0  0  0  0  0
   51.0600   80.6180   20.4330 O   0  0  0  0  0  0  0  0  0  0  0  0
   51.0600   83.0100   21.2700 O   0  0  0  0  0  0  0  0  0  0  0  0
   52.5670   82.1080   23.6410 C   0  0  0  0  0  0  0  0  0  0  0  0
   53.4140   81.7290   24.6860 C   0  0  0  0  0  0  0  0  0  0  0  0
   54.2310   78.9710   26.9390 C   0  0  0  0  0  0  0  0  0  0  0  0
   55.0740   78.5950   27.9900 C   0  0  0  0  0  0  0  0  0  0  0  0
   60.4877   81.5409   31.0182 H   0  0  0  0  0  0  0  0  0  0  0  0
   60.7767   80.6491   29.4859 H   0  0  0  0  0  0  0  0  0  0  0  0
   59.7563   82.1274   29.4859 H   0  0  0  0  0  0  0  0  0  0  0  0
   58.8710   79.7720   28.3550 H   0  0  0  0  0  0  0  0  0  0  0  0
   57.4919   77.7546   29.1668 H   0  0  0  0  0  0  0  0  0  0  0  0
   56.7279   78.9857   30.2451 H   0  0  0  0  0  0  0  0  0  0  0  0
   57.6613   80.7332   27.3901 H   0  0  0  0  0  0  0  0  0  0  0  0
   56.1581   81.3990   25.5280 H   0  0  0  0  0  0  0  0  0  0  0  0
   53.3328   78.3419   24.2725 H   0  0  0  0  0  0  0  0  0  0  0  0
   51.8164   79.0069   22.4087 H   0  0  0  0  0  0  0  0  0  0  0  0
   49.3990   80.4960   22.7950 H   0  0  0  0  0  0  0  0  0  0  0  0
   48.7240   81.2390   21.4340 H   0  0  0  0  0  0  0  0  0  0  0  0
   52.3417   83.1705   23.4668 H   0  0  0  0  0  0  0  0  0  0  0  0
   53.8587   82.5032   25.3285 H   0  0  0  0  0  0  0  0  0  0  0  0
   53.2621   78.4649   26.8166 H   0  0  0  0  0  0  0  0  0  0  0  0
   54.7645   77.7962   28.6800 H   0  0  0  0  0  0  0  0  0  0  0  0
  1  2  1  0
  2  3  2  0
  2  4  1  0
  4  5  1  0
  5  6  1  0
  6  7  1  0
  7  8  2  0
  8  9  1  0
  9 10  1  0
 10 11  1  0
 11 12  2  0
 12 13  1  0
 13 14  1  0
 14 15  1  0
 14 16  2  0
 14 17  2  0
 13 18  2  0
 18 19  1  0
  9 20  2  0
 20 21  1  0
 21  6  2  0
 19 10  2  0
  1 22  1  0
  1 23  1  0
  1 24  1  0
  4 25  1  0
  5 26  1  0
  5 27  1  0
  7 28  1  0
  8 29  1  0
 11 30  1  0
 12 31  1  0
 15 32  1  0
 15 33  1  0
 18 34  1  0
 19 35  1  0
 20 36  1  0
 21 37  1  0
M  END
>  <meeko>  (1) 
{"is_sidechain": false}

>  <smiles>  (1) 
CC(=O)NCc1ccc(-c2ccc(S(N)(=O)=O)cc2)cc1

>  <vina_score>  (1) 
-8.275

>  <job_id>  (1) 
ed3c316808210538

$$$$
