
     RDKit          3D

 31 32  0  0  0  0  0  0  0  0999 V2000
   49.3440   80.9970   22.1340 N   0  0  0  0  0  0  0  0  0  0  0  0
   50.7780   81.4880   21.4140 S   0  0  0  0  0  0  0  0  0  0  0  0
   50.6850   82.9210   21.2700 O   0  0  0  0  0  0  0  0  0  0  0  0
   50.9750   80.6070   20.2860 O   0  0  0  0  0  0  0  0  0  0  0  0
   51.9670   81.1030   22.6650 C   0  0  0  0  0  0  0  0  0  0  0  0
   52.5120   82.1230   23.4460 C   0  0  0  0  0  0  0  0  0  0  0  0
   53.4320   81.8040   24.4490 C   0  0  0  0  0  0  0  0  0  0  0  0
   53.8100   80.4740   24.6810 C   0  0  0  0  0  0  0  0  0  0  0  0
   54.7400   80.2410   25.7160 N   0  0  0  0  0  0  0  0  0  0  0  0
   54.6220   79.3420   26.7610 C   0  0  0  0  0  0  0  0  0  0  0  0
   53.7210   78.5300   26.9360 O   0  0  0  0  0  0  0  0  0  0  0  0
   55.7490   79.3620   27.7360 C   0  0  0  0  0  0  0  0  0  0  0  0
   55.7450   78.5570   28.8860 C   0  0  0  0  0  0  0  0  0  0  0  0
   56.8250   78.6040   29.7710 C   0  0  0  0  0  0  0  0  0  0  0  0
   57.9010   79.4420   29.5000 C   0  0  0  0  0  0  0  0  0  0  0  0
   58.9340   79.4820   30.3520 F   0  0  0  0  0  0  0  0  0  0  0  0
   57.9270   80.2320   28.3560 C   0  0  0  0  0  0  0  0  0  0  0  0
   56.8510   80.1880   27.4670 C   0  0  0  0  0  0  0  0  0  0  0  0
   53.2430   79.4630   23.9000 C   0  0  0  0  0  0  0  0  0  0  0  0
   52.3200   79.7730   22.8940 C   0  0  0  0  0  0  0  0  0  0  0  0
   49.5360   80.5940   23.0520 H   0  0  0  0  0  0  0  0  0  0  0  0
   48.8380   80.3720   21.5070 H   0  0  0  0  0  0  0  0  0  0  0  0
   52.2201   83.1695   23.2738 H   0  0  0  0  0  0  0  0  0  0  0  0
   53.8649   82.6067   25.0640 H   0  0  0  0  0  0  0  0  0  0  0  0
   55.6170   80.7390   25.6370 H   0  0  0  0  0  0  0  0  0  0  0  0
   54.8937   77.8909   29.0898 H   0  0  0  0  0  0  0  0  0  0  0  0
   56.8241   77.9812   30.6777 H   0  0  0  0  0  0  0  0  0  0  0  0
   58.7878   80.8860   28.1530 H   0  0  0  0  0  0  0  0  0  0  0  0
   56.8673   80.8019   26.5544 H   0  0  0  0  0  0  0  0  0  0  0  0
   53.5245   78.4145   24.0773 H   0  0  0  0  0  0  0  0  0  0  0  0
   51.8750   78.9711   22.2866 H   0  0  0  0  0  0  0  0  0  0  0  0
  1  2  1  0
  2  3  2  0
  2  4  2  0
  2  5  1  0
  5  6  1  0
  6  7  2  0
  7  8  1  0
  8  9  1  0
  9 10  1  0
 10 11  2  0
 10 12  1  0
 12 13  1  0
 13 14  2  0
 14 15  1  0
 15 16  1  0
 15 17  2  0
 17 18  1  0
  8 19  2  0
 19 20  1  0
 20  5  2  0
 18 12  2  0
  1 21  1  0
  1 22  1  0
  6 23  1  0
  7 24  1  0
  9 25  1  0
 13 26  1  0
 14 27  1  0
 17 28  1  0
 18 29  1  0
 19 30  1  0
 20 31  1  0
M  END
>  <meeko>  (1) 
{"is_sidechain": false}

>  <smiles>  (1) 
NS(=O)(=O)c1ccc(NC(=O)c2ccc(F)cc2)cc1

>  <vina_score>  (1) 
-7.846

>  <job_id>  (1) 
ed7e6ef6cc51cd56

$$$$
