
     RDKit          3D

 52 54  0  0  0  0  0  0  0  0999 V2000
   66.5640   81.3500   30.6450 C   0  0  0  0  0  0  0  0  0  0  0  0
   65.8280   82.1910   31.5140 O   0  0  0  0  0  0  0  0  0  0  0  0
   64.2860   82.6060   31.1900 S   0  0  0  0  0  0  0  0  0  0  0  0
   63.8620   81.3570   30.3980 N   0  0  0  0  0  0  0  0  0  0  0  0
   64.2920   83.9610   30.6830 O   0  0  0  0  0  0  0  0  0  0  0  0
   63.4210   82.6280   32.7480 C   0  0  0  0  0  0  0  0  0  0  0  0
   62.3760   81.7570   32.8060 N   0  0  0  0  0  0  0  0  0  0  0  0
   61.7070   81.7100   33.9690 C   0  0  0  0  0  0  0  0  0  0  0  0
   60.4980   80.7660   34.0890 C   0  0  1  0  0  0  0  0  0  0  0  0
   60.3250   80.3020   35.5350 C   0  0  0  0  0  0  0  0  0  0  0  0
   59.2660   81.4540   33.6580 N   0  0  0  0  0  0  0  0  0  0  0  0
   59.1170   81.7140   32.2890 C   0  0  0  0  0  0  0  0  0  0  0  0
   58.7950   80.6970   31.4620 N   0  0  0  0  0  0  0  0  0  0  0  0
   58.5920   80.9570   30.1580 C   0  0  0  0  0  0  0  0  0  0  0  0
   58.2710   79.8450   29.3840 N   0  0  0  0  0  0  0  0  0  0  0  0
   57.1190   79.4240   28.7140 C   0  0  0  0  0  0  0  0  0  0  0  0
   56.3150   78.3580   29.1360 C   0  0  0  0  0  0  0  0  0  0  0  0
   55.1660   77.9840   28.4290 C   0  0  0  0  0  0  0  0  0  0  0  0
   54.8120   78.6820   27.2750 C   0  0  0  0  0  0  0  0  0  0  0  0
   53.3610   78.2370   26.3970 S   0  0  0  0  0  0  0  0  0  0  0  0
   53.6570   77.9820   25.0010 O   0  0  0  0  0  0  0  0  0  0  0  0
   52.5020   76.5610   27.1790 S   0  0  0  0  0  0  0  0  0  0  0  0
   52.2940   79.4820   26.5260 O   0  0  0  0  0  0  0  0  0  0  0  0
   52.1850   80.3840   25.3590 N   0  0  0  0  0  0  0  0  0  0  0  0
   55.5840   79.7560   26.8370 C   0  0  0  0  0  0  0  0  0  0  0  0
   56.7280   80.1160   27.5540 C   0  0  0  0  0  0  0  0  0  0  0  0
   58.6880   82.1840   29.6300 N   0  0  0  0  0  0  0  0  0  0  0  0
   58.9900   83.1900   30.4730 C   0  0  0  0  0  0  0  0  0  0  0  0
   59.2100   83.0150   31.8170 C   0  0  0  0  0  0  0  0  0  0  0  0
   59.6350   84.4930   32.9110 Br  0  0  0  0  0  0  0  0  0  0  0  0
   62.0020   82.4980   35.0320 N   0  0  0  0  0  0  0  0  0  0  0  0
   63.0550   83.3390   34.9080 C   0  0  0  0  0  0  0  0  0  0  0  0
   63.8220   83.4520   33.7720 C   0  0  0  0  0  0  0  0  0  0  0  0
   65.2640   84.6590   33.7320 Br  0  0  0  0  0  0  0  0  0  0  0  0
   67.1739   80.6531   31.2386 H   0  0  0  0  0  0  0  0  0  0  0  0
   65.8691   80.7802   30.0106 H   0  0  0  0  0  0  0  0  0  0  0  0
   67.2209   81.9632   30.0106 H   0  0  0  0  0  0  0  0  0  0  0  0
   62.9920   81.5400   29.8960 H   0  0  0  0  0  0  0  0  0  0  0  0
   60.6803   79.8948   33.4426 H   0  0  0  0  0  0  0  0  0  0  0  0
   60.6263   81.1100   36.2179 H   0  0  0  0  0  0  0  0  0  0  0  0
   59.2706   80.0448   35.7139 H   0  0  0  0  0  0  0  0  0  0  0  0
   60.9537   79.4173   35.7139 H   0  0  0  0  0  0  0  0  0  0  0  0
   59.1330   82.3080   34.2060 H   0  0  0  0  0  0  0  0  0  0  0  0
   59.0600   79.2170   29.3790 H   0  0  0  0  0  0  0  0  0  0  0  0
   56.5925   77.8019   30.0436 H   0  0  0  0  0  0  0  0  0  0  0  0
   54.5470   77.1457   28.7813 H   0  0  0  0  0  0  0  0  0  0  0  0
   52.4050   79.7350   24.6010 H   0  0  0  0  0  0  0  0  0  0  0  0
   53.0320   80.9640   25.4490 H   0  0  0  0  0  0  0  0  0  0  0  0
   55.2955   80.3154   25.9349 H   0  0  0  0  0  0  0  0  0  0  0  0
   57.3377   80.9614   27.2024 H   0  0  0  0  0  0  0  0  0  0  0  0
   59.0645   84.2077   30.0623 H   0  0  0  0  0  0  0  0  0  0  0  0
   63.3137   83.9718   35.7698 H   0  0  0  0  0  0  0  0  0  0  0  0
  1  2  1  0
  2  3  1  0
  3  4  2  0
  3  5  2  0
  3  6  1  0
  6  7  2  0
  7  8  1  0
  8  9  1  0
  9 10  1  0
  9 11  1  0
 11 12  1  0
 12 13  2  0
 13 14  1  0
 14 15  1  0
 15 16  1  0
 16 17  1  0
 17 18  2  0
 18 19  1  0
 19 20  1  0
 20 21  2  0
 20 22  2  0
 20 23  1  0
 23 24  1  0
 19 25  2  0
 25 26  1  0
 14 27  2  0
 27 28  1  0
 28 29  2  0
 29 30  1  0
  8 31  2  0
 31 32  1  0
 32 33  2  0
 33 34  1  0
 33  6  1  0
 29 12  1  0
 26 16  2  0
  1 35  1  0
  1 36  1  0
  1 37  1  0
  4 38  1  0
  9 39  1  6
 10 40  1  0
 10 41  1  0
 10 42  1  0
 11 43  1  0
 15 44  1  0
 17 45  1  0
 18 46  1  0
 24 47  1  0
 24 48  1  0
 25 49  1  0
 26 50  1  0
 28 51  1  0
 32 52  1  0
M  END
>  <meeko>  (1) 
{"is_sidechain": false}

>  <smiles>  (1) 
COS(=N)(=O)c1nc([C@@H](C)Nc2nc(Nc3ccc(S(=O)(=S)ON)cc3)ncc2Br)ncc1Br

>  <vina_score>  (1) 
-7.574

>  <job_id>  (1) 
ed8964a04f96579b

$$$$
