
     RDKit          3D

 58 61  0  0  0  0  0  0  0  0999 V2000
   60.0960   80.6070   36.3490 C   0  0  0  0  0  0  0  0  0  0  0  0
   60.7110   80.3660   34.9970 C   0  0  0  0  0  0  0  0  0  0  0  0
   61.8190   79.8570   34.8650 O   0  0  0  0  0  0  0  0  0  0  0  0
   59.9270   80.7810   33.9420 N   0  0  0  0  0  0  0  0  0  0  0  0
   60.4160   80.7360   32.5690 C   0  0  2  0  0  0  0  0  0  0  0  0
   60.9630   82.1050   32.1280 C   0  0  0  0  0  0  0  0  0  0  0  0
   59.9080   82.9220   31.3930 C   0  0  0  0  0  0  0  0  0  0  0  0
   59.4210   82.2180   30.1240 C   0  0  0  0  0  0  0  0  0  0  0  0
   59.5040   80.6810   30.1990 C   0  0  0  0  0  0  0  0  0  0  0  0
   58.4970   80.0010   29.2650 C   0  0  0  0  0  0  0  0  0  0  0  0
   58.5590   80.1130   28.0450 O   0  0  0  0  0  0  0  0  0  0  0  0
   57.5520   79.2710   29.9510 N   0  0  0  0  0  0  0  0  0  0  0  0
   56.4760   78.5460   29.4400 C   0  0  0  0  0  0  0  0  0  0  0  0
   55.7170   78.9320   28.3450 C   0  0  0  0  0  0  0  0  0  0  0  0
   54.6560   78.1160   27.9120 C   0  0  0  0  0  0  0  0  0  0  0  0
   53.8730   78.5450   26.7680 C   0  0  0  0  0  0  0  0  0  0  0  0
   53.3100   77.8160   25.6730 C   0  0  0  0  0  0  0  0  0  0  0  0
   52.6300   78.5930   24.8130 N   0  0  0  0  0  0  0  0  0  0  0  0
   52.7680   79.7920   25.3640 N   0  0  0  0  0  0  0  0  0  0  0  0
   53.4810   79.8350   26.5130 C   0  0  0  0  0  0  0  0  0  0  0  0
   53.5600   81.2170   27.0250 C   0  0  0  0  0  0  0  0  0  0  0  0
   53.0680   82.0670   25.7950 C   0  0  0  0  0  0  0  0  0  0  0  0
   54.2780   82.6150   25.0180 C   0  0  0  0  0  0  0  0  0  0  0  0
   52.1850   83.2320   26.2480 C   0  0  0  0  0  0  0  0  0  0  0  0
   52.2670   81.0710   24.9010 C   0  0  0  0  0  0  0  0  0  0  0  0
   54.3960   76.9350   28.6100 C   0  0  0  0  0  0  0  0  0  0  0  0
   53.1600   75.8120   28.1790 Cl  0  0  0  0  0  0  0  0  0  0  0  0
   55.2030   76.6380   29.6970 C   0  0  0  0  0  0  0  0  0  0  0  0
   56.2280   77.4130   30.1270 N   0  0  0  0  0  0  0  0  0  0  0  0
   59.3090   80.2060   31.6430 C   0  0  0  0  0  0  0  0  0  0  0  0
   60.8137   80.3257   37.1337 H   0  0  0  0  0  0  0  0  0  0  0  0
   59.8400   81.6720   36.4508 H   0  0  0  0  0  0  0  0  0  0  0  0
   59.1846   79.9995   36.4508 H   0  0  0  0  0  0  0  0  0  0  0  0
   59.1460   81.3920   34.1480 H   0  0  0  0  0  0  0  0  0  0  0  0
   61.2640   80.0383   32.5051 H   0  0  0  0  0  0  0  0  0  0  0  0
   61.2893   82.6624   33.0184 H   0  0  0  0  0  0  0  0  0  0  0  0
   61.8046   81.9333   31.4408 H   0  0  0  0  0  0  0  0  0  0  0  0
   59.0502   83.0800   32.0632 H   0  0  0  0  0  0  0  0  0  0  0  0
   60.3631   83.8790   31.0980 H   0  0  0  0  0  0  0  0  0  0  0  0
   58.3724   82.5013   29.9501 H   0  0  0  0  0  0  0  0  0  0  0  0
   60.0826   82.5366   29.3050 H   0  0  0  0  0  0  0  0  0  0  0  0
   60.5084   80.3889   29.8585 H   0  0  0  0  0  0  0  0  0  0  0  0
   57.6290   79.1730   30.9550 H   0  0  0  0  0  0  0  0  0  0  0  0
   55.9434   79.8708   27.8182 H   0  0  0  0  0  0  0  0  0  0  0  0
   53.4225   76.7290   25.5478 H   0  0  0  0  0  0  0  0  0  0  0  0
   52.9001   81.3570   27.8939 H   0  0  0  0  0  0  0  0  0  0  0  0
   54.5640   81.4967   27.3768 H   0  0  0  0  0  0  0  0  0  0  0  0
   55.0433   82.9616   25.7281 H   0  0  0  0  0  0  0  0  0  0  0  0
   54.6983   81.8194   24.3853 H   0  0  0  0  0  0  0  0  0  0  0  0
   53.9573   83.4557   24.3853 H   0  0  0  0  0  0  0  0  0  0  0  0
   52.1589   83.2665   27.3471 H   0  0  0  0  0  0  0  0  0  0  0  0
   52.5965   84.1760   25.8612 H   0  0  0  0  0  0  0  0  0  0  0  0
   51.1649   83.0909   25.8612 H   0  0  0  0  0  0  0  0  0  0  0  0
   51.1839   81.1624   25.0701 H   0  0  0  0  0  0  0  0  0  0  0  0
   52.3965   81.2368   23.8213 H   0  0  0  0  0  0  0  0  0  0  0  0
   54.9972   75.7089   30.2488 H   0  0  0  0  0  0  0  0  0  0  0  0
   58.3358   80.5655   32.0084 H   0  0  0  0  0  0  0  0  0  0  0  0
   59.3510   79.1068   31.6516 H   0  0  0  0  0  0  0  0  0  0  0  0
  1  2  1  0
  2  3  2  0
  2  4  1  0
  4  5  1  0
  5  6  1  0
  6  7  1  0
  7  8  1  0
  8  9  1  0
  9 10  1  0
 10 11  2  0
 10 12  1  0
 12 13  1  0
 13 14  2  0
 14 15  1  0
 15 16  1  0
 16 17  1  0
 17 18  2  0
 18 19  1  0
 19 20  1  0
 20 21  1  0
 21 22  1  0
 22 23  1  0
 22 24  1  0
 22 25  1  0
 15 26  2  0
 26 27  1  0
 26 28  1  0
 28 29  2  0
  9 30  1  0
 30  5  1  0
 29 13  1  0
 20 16  2  0
 25 19  1  0
  1 31  1  0
  1 32  1  0
  1 33  1  0
  4 34  1  0
  5 35  1  1
  6 36  1  0
  6 37  1  0
  7 38  1  0
  7 39  1  0
  8 40  1  0
  8 41  1  0
  9 42  1  0
 12 43  1  0
 14 44  1  0
 17 45  1  0
 21 46  1  0
 21 47  1  0
 23 48  1  0
 23 49  1  0
 23 50  1  0
 24 51  1  0
 24 52  1  0
 24 53  1  0
 25 54  1  0
 25 55  1  0
 28 56  1  0
 30 57  1  0
 30 58  1  0
M  END
>  <meeko>  (1) 
{"is_sidechain": false}

>  <smiles>  (1) 
CC(=O)N[C@@H]1CCCC(C(=O)Nc2cc(-c3cnn4c3CC(C)(C)C4)c(Cl)cn2)C1

>  <vina_score>  (1) 
-8.502

>  <job_id>  (1) 
ed8f97cee9001581

$$$$
