
     RDKit          3D

 37 38  0  0  0  0  0  0  0  0999 V2000
   62.1440   81.7110   33.4200 C   0  0  0  0  0  0  0  0  0  0  0  0
   60.9040   82.1860   32.7680 N   0  0  0  0  0  0  0  0  0  0  0  0
   60.3800   83.4050   33.4260 C   0  0  0  0  0  0  0  0  0  0  0  0
   60.9960   82.3400   31.0640 S   0  0  0  0  0  0  0  0  0  0  0  0
   60.6590   83.7030   30.7110 O   0  0  0  0  0  0  0  0  0  0  0  0
   62.2460   81.7420   30.6450 O   0  0  0  0  0  0  0  0  0  0  0  0
   59.6620   81.3120   30.5040 C   0  0  0  0  0  0  0  0  0  0  0  0
   59.4080   81.1690   29.1400 C   0  0  0  0  0  0  0  0  0  0  0  0
   58.3510   80.3560   28.7200 C   0  0  0  0  0  0  0  0  0  0  0  0
   57.5350   79.6840   29.6510 C   0  0  0  0  0  0  0  0  0  0  0  0
   56.4220   78.8330   29.2030 C   0  0  0  0  0  0  0  0  0  0  0  0
   55.6610   79.1690   28.0720 C   0  0  0  0  0  0  0  0  0  0  0  0
   54.6030   78.3590   27.6440 C   0  0  0  0  0  0  0  0  0  0  0  0
   54.2850   77.1850   28.3350 C   0  0  0  0  0  0  0  0  0  0  0  0
   53.1260   76.3320   27.8950 C   0  0  0  0  0  0  0  0  0  0  0  0
   53.3140   74.9820   28.2980 O   0  0  0  0  0  0  0  0  0  0  0  0
   55.0270   76.8460   29.4720 C   0  0  0  0  0  0  0  0  0  0  0  0
   56.0850   77.6580   29.8950 C   0  0  0  0  0  0  0  0  0  0  0  0
   57.8100   79.8540   31.0200 C   0  0  0  0  0  0  0  0  0  0  0  0
   58.8640   80.6640   31.4490 C   0  0  0  0  0  0  0  0  0  0  0  0
   62.0245   81.7568   34.5125 H   0  0  0  0  0  0  0  0  0  0  0  0
   62.3435   80.6728   33.1161 H   0  0  0  0  0  0  0  0  0  0  0  0
   62.9861   82.3502   33.1161 H   0  0  0  0  0  0  0  0  0  0  0  0
   60.4322   83.2835   34.5180 H   0  0  0  0  0  0  0  0  0  0  0  0
   60.9844   84.2731   33.1243 H   0  0  0  0  0  0  0  0  0  0  0  0
   59.3342   83.5638   33.1243 H   0  0  0  0  0  0  0  0  0  0  0  0
   60.0338   81.6912   28.4013 H   0  0  0  0  0  0  0  0  0  0  0  0
   58.1532   80.2391   27.6443 H   0  0  0  0  0  0  0  0  0  0  0  0
   55.9006   80.0852   27.5123 H   0  0  0  0  0  0  0  0  0  0  0  0
   54.0177   78.6474   26.7584 H   0  0  0  0  0  0  0  0  0  0  0  0
   52.2009   76.7184   28.3477 H   0  0  0  0  0  0  0  0  0  0  0  0
   53.0577   76.3672   26.7977 H   0  0  0  0  0  0  0  0  0  0  0  0
   53.3690   74.9660   29.2690 H   0  0  0  0  0  0  0  0  0  0  0  0
   54.7770   75.9357   30.0366 H   0  0  0  0  0  0  0  0  0  0  0  0
   56.6633   77.3710   30.7856 H   0  0  0  0  0  0  0  0  0  0  0  0
   57.1846   79.3405   31.7651 H   0  0  0  0  0  0  0  0  0  0  0  0
   59.0639   80.7905   32.5233 H   0  0  0  0  0  0  0  0  0  0  0  0
  1  2  1  0
  2  3  1  0
  2  4  1  0
  4  5  2  0
  4  6  2  0
  4  7  1  0
  7  8  1  0
  8  9  2  0
  9 10  1  0
 10 11  1  0
 11 12  1  0
 12 13  2  0
 13 14  1  0
 14 15  1  0
 15 16  1  0
 14 17  2  0
 17 18  1  0
 10 19  2  0
 19 20  1  0
 20  7  2  0
 18 11  2  0
  1 21  1  0
  1 22  1  0
  1 23  1  0
  3 24  1  0
  3 25  1  0
  3 26  1  0
  8 27  1  0
  9 28  1  0
 12 29  1  0
 13 30  1  0
 15 31  1  0
 15 32  1  0
 16 33  1  0
 17 34  1  0
 18 35  1  0
 19 36  1  0
 20 37  1  0
M  END
>  <meeko>  (1) 
{"is_sidechain": false}

>  <smiles>  (1) 
CN(C)S(=O)(=O)c1ccc(-c2ccc(CO)cc2)cc1

>  <vina_score>  (1) 
-6.807

>  <job_id>  (1) 
edfa5d4444349125

$$$$
