
     RDKit          3D

 50 52  0  0  0  0  0  0  0  0999 V2000
   61.0520   84.4900   31.5350 C   0  0  0  0  0  0  0  0  0  0  0  0
   60.9420   83.2890   32.2880 O   0  0  0  0  0  0  0  0  0  0  0  0
   60.2790   82.2500   31.7000 C   0  0  0  0  0  0  0  0  0  0  0  0
   59.5500   81.2610   32.3560 C   0  0  0  0  0  0  0  0  0  0  0  0
   58.9160   80.2470   31.6230 C   0  0  0  0  0  0  0  0  0  0  0  0
   58.9880   80.2060   30.2270 C   0  0  0  0  0  0  0  0  0  0  0  0
   58.4010   79.1860   29.4580 N   0  0  0  0  0  0  0  0  0  0  0  0
   57.1690   79.1050   28.7880 C   0  0  0  0  0  0  0  0  0  0  0  0
   56.8780   79.8570   27.6430 C   0  0  0  0  0  0  0  0  0  0  0  0
   55.6510   79.7240   26.9840 C   0  0  0  0  0  0  0  0  0  0  0  0
   54.6950   78.8330   27.4760 C   0  0  0  0  0  0  0  0  0  0  0  0
   53.3950   78.6570   26.7900 C   0  0  0  0  0  0  0  0  0  0  0  0
   52.6570   77.7660   27.2030 O   0  0  0  0  0  0  0  0  0  0  0  0
   53.0710   79.4990   25.7230 N   0  0  0  0  0  0  0  0  0  0  0  0
   52.5700   80.8320   26.0430 C   0  0  0  0  0  0  0  0  0  0  0  0
   53.2130   81.9080   25.1760 C   0  0  0  0  0  0  0  0  0  0  0  0
   52.6980   81.9370   23.7250 C   0  0  0  0  0  0  0  0  0  0  0  0
   51.7370   80.9120   23.3110 N   0  0  0  0  0  0  0  0  0  0  0  0
   51.0040   81.2700   22.1030 C   0  0  0  0  0  0  0  0  0  0  0  0
   52.3100   79.5600   23.2720 C   0  0  0  0  0  0  0  0  0  0  0  0
   53.3800   79.1860   24.3210 C   0  0  0  0  0  0  0  0  0  0  0  0
   54.9770   78.0510   28.5970 C   0  0  0  0  0  0  0  0  0  0  0  0
   56.2060   78.1940   29.2490 C   0  0  0  0  0  0  0  0  0  0  0  0
   59.7300   81.2020   29.5800 C   0  0  0  0  0  0  0  0  0  0  0  0
   60.3650   82.2140   30.3080 C   0  0  0  0  0  0  0  0  0  0  0  0
   61.1305   85.3467   32.2205 H   0  0  0  0  0  0  0  0  0  0  0  0
   61.9497   84.4443   30.9010 H   0  0  0  0  0  0  0  0  0  0  0  0
   60.1609   84.6082   30.9010 H   0  0  0  0  0  0  0  0  0  0  0  0
   59.4712   81.2752   33.4531 H   0  0  0  0  0  0  0  0  0  0  0  0
   58.3510   79.4686   32.1568 H   0  0  0  0  0  0  0  0  0  0  0  0
   59.0010   78.3800   29.3250 H   0  0  0  0  0  0  0  0  0  0  0  0
   57.6264   80.5639   27.2554 H   0  0  0  0  0  0  0  0  0  0  0  0
   55.4404   80.3184   26.0827 H   0  0  0  0  0  0  0  0  0  0  0  0
   51.4819   80.8502   25.8826 H   0  0  0  0  0  0  0  0  0  0  0  0
   52.8217   81.0463   27.0922 H   0  0  0  0  0  0  0  0  0  0  0  0
   53.0106   82.8874   25.6341 H   0  0  0  0  0  0  0  0  0  0  0  0
   54.2871   81.6759   25.1268 H   0  0  0  0  0  0  0  0  0  0  0  0
   52.2195   82.9150   23.5682 H   0  0  0  0  0  0  0  0  0  0  0  0
   53.5909   81.7358   23.1148 H   0  0  0  0  0  0  0  0  0  0  0  0
   50.0473   81.7372   22.3795 H   0  0  0  0  0  0  0  0  0  0  0  0
   51.5999   81.9785   21.5089 H   0  0  0  0  0  0  0  0  0  0  0  0
   50.8116   80.3644   21.5089 H   0  0  0  0  0  0  0  0  0  0  0  0
   51.4777   78.8504   23.3890 H   0  0  0  0  0  0  0  0  0  0  0  0
   52.8463   79.5209   22.3124 H   0  0  0  0  0  0  0  0  0  0  0  0
   53.5492   78.1013   24.2517 H   0  0  0  0  0  0  0  0  0  0  0  0
   54.2546   79.8057   24.0737 H   0  0  0  0  0  0  0  0  0  0  0  0
   54.2365   77.3260   28.9658 H   0  0  0  0  0  0  0  0  0  0  0  0
   56.4214   77.5825   30.1376 H   0  0  0  0  0  0  0  0  0  0  0  0
   59.8148   81.1885   28.4834 H   0  0  0  0  0  0  0  0  0  0  0  0
   60.9378   82.9890   29.7776 H   0  0  0  0  0  0  0  0  0  0  0  0
  1  2  1  0
  2  3  1  0
  3  4  1  0
  4  5  2  0
  5  6  1  0
  6  7  1  0
  7  8  1  0
  8  9  1  0
  9 10  2  0
 10 11  1  0
 11 12  1  0
 12 13  2  0
 12 14  1  0
 14 15  1  0
 15 16  1  0
 16 17  1  0
 17 18  1  0
 18 19  1  0
 18 20  1  0
 20 21  1  0
 11 22  2  0
 22 23  1  0
  6 24  2  0
 24 25  1  0
 25  3  2  0
 23  8  2  0
 21 14  1  0
  1 26  1  0
  1 27  1  0
  1 28  1  0
  4 29  1  0
  5 30  1  0
  7 31  1  0
  9 32  1  0
 10 33  1  0
 15 34  1  0
 15 35  1  0
 16 36  1  0
 16 37  1  0
 17 38  1  0
 17 39  1  0
 19 40  1  0
 19 41  1  0
 19 42  1  0
 20 43  1  0
 20 44  1  0
 21 45  1  0
 21 46  1  0
 22 47  1  0
 23 48  1  0
 24 49  1  0
 25 50  1  0
M  END
>  <meeko>  (1) 
{"is_sidechain": false}

>  <smiles>  (1) 
COc1ccc(Nc2ccc(C(=O)N3CCCN(C)CC3)cc2)cc1

>  <vina_score>  (1) 
-6.569

>  <job_id>  (1) 
ee07d1b705d63850

$$$$
