
     RDKit          3D

 33 34  0  0  0  0  0  0  0  0999 V2000
   58.9350   83.2520   33.2700 N   0  0  0  0  0  0  0  0  0  0  0  0
   60.1030   83.2000   32.0670 S   0  0  0  0  0  0  0  0  0  0  0  0
   60.0250   84.4690   31.3810 O   0  0  0  0  0  0  0  0  0  0  0  0
   61.3140   82.7380   32.7040 O   0  0  0  0  0  0  0  0  0  0  0  0
   59.4830   81.9270   31.0070 C   0  0  0  0  0  0  0  0  0  0  0  0
   58.7410   80.8750   31.5540 C   0  0  0  0  0  0  0  0  0  0  0  0
   58.2730   79.8570   30.7220 C   0  0  0  0  0  0  0  0  0  0  0  0
   58.5700   79.8840   29.3540 C   0  0  0  0  0  0  0  0  0  0  0  0
   58.1110   78.9290   28.4760 O   0  0  0  0  0  0  0  0  0  0  0  0
   56.7580   78.6800   28.4690 C   0  0  0  0  0  0  0  0  0  0  0  0
   56.1840   77.6270   29.1900 C   0  0  0  0  0  0  0  0  0  0  0  0
   54.8070   77.4020   29.1220 C   0  0  0  0  0  0  0  0  0  0  0  0
   54.0060   78.2140   28.3180 C   0  0  0  0  0  0  0  0  0  0  0  0
   54.5960   79.2400   27.5740 C   0  0  0  0  0  0  0  0  0  0  0  0
   53.5950   80.2770   26.5450 S   0  0  0  0  0  0  0  0  0  0  0  0
   54.6620   80.6470   25.2960 N   0  0  0  0  0  0  0  0  0  0  0  0
   53.3100   81.4940   27.2670 O   0  0  0  0  0  0  0  0  0  0  0  0
   52.5600   79.4680   25.9430 O   0  0  0  0  0  0  0  0  0  0  0  0
   55.9700   79.4820   27.6450 C   0  0  0  0  0  0  0  0  0  0  0  0
   59.3010   80.9430   28.8110 C   0  0  0  0  0  0  0  0  0  0  0  0
   59.7710   81.9640   29.6390 C   0  0  0  0  0  0  0  0  0  0  0  0
   58.0160   83.4110   32.8550 H   0  0  0  0  0  0  0  0  0  0  0  0
   59.1930   83.9420   33.9760 H   0  0  0  0  0  0  0  0  0  0  0  0
   58.5278   80.8503   32.6329 H   0  0  0  0  0  0  0  0  0  0  0  0
   57.6724   79.0356   31.1398 H   0  0  0  0  0  0  0  0  0  0  0  0
   56.8174   76.9761   29.8106 H   0  0  0  0  0  0  0  0  0  0  0  0
   54.3540   76.5846   29.7023 H   0  0  0  0  0  0  0  0  0  0  0  0
   52.9196   78.0482   28.2701 H   0  0  0  0  0  0  0  0  0  0  0  0
   54.2720   80.4900   24.3680 H   0  0  0  0  0  0  0  0  0  0  0  0
   54.9880   81.6080   25.4160 H   0  0  0  0  0  0  0  0  0  0  0  0
   56.4240   80.2944   27.0586 H   0  0  0  0  0  0  0  0  0  0  0  0
   59.5064   80.9726   27.7308 H   0  0  0  0  0  0  0  0  0  0  0  0
   60.3629   82.7906   29.2189 H   0  0  0  0  0  0  0  0  0  0  0  0
  1  2  1  0
  2  3  2  0
  2  4  2  0
  2  5  1  0
  5  6  1  0
  6  7  2  0
  7  8  1  0
  8  9  1  0
  9 10  1  0
 10 11  1  0
 11 12  2  0
 12 13  1  0
 13 14  2  0
 14 15  1  0
 15 16  1  0
 15 17  2  0
 15 18  2  0
 14 19  1  0
  8 20  2  0
 20 21  1  0
 21  5  2  0
 19 10  2  0
  1 22  1  0
  1 23  1  0
  6 24  1  0
  7 25  1  0
 11 26  1  0
 12 27  1  0
 13 28  1  0
 16 29  1  0
 16 30  1  0
 19 31  1  0
 20 32  1  0
 21 33  1  0
M  END
>  <meeko>  (1) 
{"is_sidechain": false}

>  <smiles>  (1) 
NS(=O)(=O)c1ccc(Oc2cccc(S(N)(=O)=O)c2)cc1

>  <vina_score>  (1) 
-7.782

>  <job_id>  (1) 
ee3932c530528aa4

$$$$
