
     RDKit          3D

 40 41  0  0  0  0  0  0  0  0999 V2000
   52.3410   75.6030   26.8650 C   0  0  0  0  0  0  0  0  0  0  0  0
   52.3230   76.9110   27.6420 C   0  0  0  0  0  0  0  0  0  0  0  0
   53.7040   77.3150   28.1110 C   0  0  0  0  0  0  0  0  0  0  0  0
   54.2980   76.5680   29.1450 C   0  0  0  0  0  0  0  0  0  0  0  0
   55.5600   76.8970   29.6370 C   0  0  0  0  0  0  0  0  0  0  0  0
   56.2490   77.9820   29.1080 C   0  0  0  0  0  0  0  0  0  0  0  0
   55.6730   78.7370   28.0860 C   0  0  0  0  0  0  0  0  0  0  0  0
   54.3990   78.4230   27.5740 C   0  0  0  0  0  0  0  0  0  0  0  0
   53.8490   79.2610   26.5010 C   0  0  0  0  0  0  0  0  0  0  0  0
   53.3410   80.5380   26.7780 C   0  0  0  0  0  0  0  0  0  0  0  0
   52.8200   81.3400   25.7590 C   0  0  0  0  0  0  0  0  0  0  0  0
   52.7980   80.8760   24.4370 C   0  0  0  0  0  0  0  0  0  0  0  0
   52.2880   81.7580   23.3210 C   0  0  0  0  0  0  0  0  0  0  0  0
   51.0240   81.2480   22.6370 C   0  0  0  0  0  0  0  0  0  0  0  0
   51.0370   80.9810   21.4380 O   0  0  0  0  0  0  0  0  0  0  0  0
   49.9710   80.9850   23.4970 N   0  0  0  0  0  0  0  0  0  0  0  0
   48.6460   80.9390   23.1080 C   0  0  0  0  0  0  0  0  0  0  0  0
   47.7020   80.8490   24.2810 C   0  0  0  0  0  0  0  0  0  0  0  0
   48.2220   80.9820   21.9600 O   0  0  0  0  0  0  0  0  0  0  0  0
   53.2830   79.5920   24.1580 C   0  0  0  0  0  0  0  0  0  0  0  0
   53.8030   78.7950   25.1800 C   0  0  0  0  0  0  0  0  0  0  0  0
   52.3526   74.7582   27.5694 H   0  0  0  0  0  0  0  0  0  0  0  0
   51.4436   75.5402   26.2319 H   0  0  0  0  0  0  0  0  0  0  0  0
   53.2398   75.5649   26.2319 H   0  0  0  0  0  0  0  0  0  0  0  0
   51.9233   77.7037   26.9925 H   0  0  0  0  0  0  0  0  0  0  0  0
   51.6923   76.7672   28.5317 H   0  0  0  0  0  0  0  0  0  0  0  0
   53.7576   75.7103   29.5721 H   0  0  0  0  0  0  0  0  0  0  0  0
   56.0100   76.2987   30.4429 H   0  0  0  0  0  0  0  0  0  0  0  0
   57.2451   78.2445   29.4939 H   0  0  0  0  0  0  0  0  0  0  0  0
   56.2244   79.5941   27.6721 H   0  0  0  0  0  0  0  0  0  0  0  0
   53.3527   80.9139   27.8117 H   0  0  0  0  0  0  0  0  0  0  0  0
   52.4257   82.3393   25.9956 H   0  0  0  0  0  0  0  0  0  0  0  0
   52.0742   82.7524   23.7398 H   0  0  0  0  0  0  0  0  0  0  0  0
   53.0742   81.7741   22.5519 H   0  0  0  0  0  0  0  0  0  0  0  0
   50.1310   81.1710   24.4770 H   0  0  0  0  0  0  0  0  0  0  0  0
   48.2754   80.9037   25.2181 H   0  0  0  0  0  0  0  0  0  0  0  0
   46.9858   81.6829   24.2401 H   0  0  0  0  0  0  0  0  0  0  0  0
   47.1563   79.8948   24.2401 H   0  0  0  0  0  0  0  0  0  0  0  0
   53.2541   79.2089   23.1273 H   0  0  0  0  0  0  0  0  0  0  0  0
   54.1812   77.7891   24.9454 H   0  0  0  0  0  0  0  0  0  0  0  0
  1  2  1  0
  2  3  1  0
  3  4  2  0
  4  5  1  0
  5  6  2  0
  6  7  1  0
  7  8  2  0
  8  9  1  0
  9 10  1  0
 10 11  2  0
 11 12  1  0
 12 13  1  0
 13 14  1  0
 14 15  2  0
 14 16  1  0
 16 17  1  0
 17 18  1  0
 17 19  2  0
 12 20  2  0
 20 21  1  0
  8  3  1  0
 21  9  2  0
  1 22  1  0
  1 23  1  0
  1 24  1  0
  2 25  1  0
  2 26  1  0
  4 27  1  0
  5 28  1  0
  6 29  1  0
  7 30  1  0
 10 31  1  0
 11 32  1  0
 13 33  1  0
 13 34  1  0
 16 35  1  0
 18 36  1  0
 18 37  1  0
 18 38  1  0
 20 39  1  0
 21 40  1  0
M  END
>  <meeko>  (1) 
{"is_sidechain": false}

>  <smiles>  (1) 
CCc1ccccc1-c1ccc(CC(=O)NC(C)=O)cc1

>  <vina_score>  (1) 
-8.485

>  <job_id>  (1) 
ee6da54e499cc85a

$$$$
