
     RDKit          3D

 65 69  0  0  0  0  0  0  0  0999 V2000
   52.1900   76.4530   27.4640 C   0  0  0  0  0  0  0  0  0  0  0  0
   53.5150   76.6910   28.0960 C   0  0  0  0  0  0  0  0  0  0  0  0
   54.0630   75.8510   28.9520 N   0  0  0  0  0  0  0  0  0  0  0  0
   55.1840   76.4690   29.4110 C   0  0  0  0  0  0  0  0  0  0  0  0
   55.3600   77.7100   28.8330 C   0  0  0  0  0  0  0  0  0  0  0  0
   56.4950   78.6160   28.9960 C   0  0  0  0  0  0  0  0  0  0  0  0
   57.1010   79.1900   27.8760 C   0  0  0  0  0  0  0  0  0  0  0  0
   58.1890   80.0590   28.0200 C   0  0  0  0  0  0  0  0  0  0  0  0
   58.6970   80.3860   29.2810 C   0  0  0  0  0  0  0  0  0  0  0  0
   59.7820   81.2420   29.4880 N   0  0  0  0  0  0  0  0  0  0  0  0
   59.9470   82.4610   30.1370 C   0  0  0  0  0  0  0  0  0  0  0  0
   58.9140   83.2720   30.4060 N   0  0  0  0  0  0  0  0  0  0  0  0
   59.1820   84.4350   31.0260 C   0  0  0  0  0  0  0  0  0  0  0  0
   60.4430   84.8200   31.3950 C   0  0  0  0  0  0  0  0  0  0  0  0
   61.4380   83.9220   31.0940 C   0  0  0  0  0  0  0  0  0  0  0  0
   62.8310   84.2030   31.3990 C   0  0  0  0  0  0  0  0  0  0  0  0
   63.7170   84.9870   30.6830 C   0  0  0  0  0  0  0  0  0  0  0  0
   64.9480   85.0240   31.2670 N   0  0  0  0  0  0  0  0  0  0  0  0
   64.8540   84.2640   32.3380 C   0  0  0  0  0  0  0  0  0  0  0  0
   65.9810   83.9900   33.2700 C   0  0  0  0  0  0  0  0  0  0  0  0
   63.5690   83.7600   32.4840 N   0  0  0  0  0  0  0  0  0  0  0  0
   63.1330   82.9570   33.6270 C   0  0  0  0  0  0  0  0  0  0  0  0
   62.9600   81.4800   33.2700 C   0  0  0  0  0  0  0  0  0  0  0  0
   61.9270   83.5170   34.3850 C   0  0  0  0  0  0  0  0  0  0  0  0
   61.2150   82.7530   30.4660 N   0  0  0  0  0  0  0  0  0  0  0  0
   58.0680   79.8170   30.3990 C   0  0  0  0  0  0  0  0  0  0  0  0
   56.9790   78.9480   30.2630 C   0  0  0  0  0  0  0  0  0  0  0  0
   54.2760   77.8560   27.9620 N   0  0  0  0  0  0  0  0  0  0  0  0
   53.9800   78.9810   27.1360 C   0  0  0  0  0  0  0  0  0  0  0  0
   54.0280   78.8650   25.7380 C   0  0  0  0  0  0  0  0  0  0  0  0
   53.7270   79.9630   24.9260 C   0  0  0  0  0  0  0  0  0  0  0  0
   53.3810   81.1910   25.5010 C   0  0  0  0  0  0  0  0  0  0  0  0
   53.0440   82.3870   24.6830 C   0  0  0  0  0  0  0  0  0  0  0  0
   52.9350   83.5870   25.3280 N   0  0  0  0  0  0  0  0  0  0  0  0
   52.8390   82.3030   23.4790 O   0  0  0  0  0  0  0  0  0  0  0  0
   53.3180   81.3020   26.8950 C   0  0  0  0  0  0  0  0  0  0  0  0
   53.6190   80.2060   27.7100 C   0  0  0  0  0  0  0  0  0  0  0  0
   51.4295   76.3164   28.2470 H   0  0  0  0  0  0  0  0  0  0  0  0
   51.9214   77.3173   26.8388 H   0  0  0  0  0  0  0  0  0  0  0  0
   52.2390   75.5493   26.8388 H   0  0  0  0  0  0  0  0  0  0  0  0
   55.8682   76.0324   30.1535 H   0  0  0  0  0  0  0  0  0  0  0  0
   56.7195   78.9569   26.8709 H   0  0  0  0  0  0  0  0  0  0  0  0
   58.6538   80.4935   27.1227 H   0  0  0  0  0  0  0  0  0  0  0  0
   60.6640   80.9710   29.0780 H   0  0  0  0  0  0  0  0  0  0  0  0
   58.3442   85.1123   31.2483 H   0  0  0  0  0  0  0  0  0  0  0  0
   60.6446   85.7784   31.8959 H   0  0  0  0  0  0  0  0  0  0  0  0
   63.4594   85.5169   29.7541 H   0  0  0  0  0  0  0  0  0  0  0  0
   65.6275   84.0759   34.3081 H   0  0  0  0  0  0  0  0  0  0  0  0
   66.3622   82.9730   33.0955 H   0  0  0  0  0  0  0  0  0  0  0  0
   66.7865   84.7185   33.0955 H   0  0  0  0  0  0  0  0  0  0  0  0
   63.9649   83.0275   34.3432 H   0  0  0  0  0  0  0  0  0  0  0  0
   62.8904   80.8854   34.1928 H   0  0  0  0  0  0  0  0  0  0  0  0
   62.0406   81.3506   32.6802 H   0  0  0  0  0  0  0  0  0  0  0  0
   63.8246   81.1416   32.6802 H   0  0  0  0  0  0  0  0  0  0  0  0
   62.1039   83.4348   35.4676 H   0  0  0  0  0  0  0  0  0  0  0  0
   61.7834   84.5739   34.1161 H   0  0  0  0  0  0  0  0  0  0  0  0
   61.0269   82.9447   34.1161 H   0  0  0  0  0  0  0  0  0  0  0  0
   58.4393   80.0595   31.4056 H   0  0  0  0  0  0  0  0  0  0  0  0
   56.5020   78.5244   31.1591 H   0  0  0  0  0  0  0  0  0  0  0  0
   54.3041   77.9045   25.2783 H   0  0  0  0  0  0  0  0  0  0  0  0
   53.7623   79.8611   23.8313 H   0  0  0  0  0  0  0  0  0  0  0  0
   52.8270   83.6590   26.3290 H   0  0  0  0  0  0  0  0  0  0  0  0
   52.5880   84.3580   24.7690 H   0  0  0  0  0  0  0  0  0  0  0  0
   53.0293   82.2594   27.3533 H   0  0  0  0  0  0  0  0  0  0  0  0
   53.5720   80.3066   28.8044 H   0  0  0  0  0  0  0  0  0  0  0  0
  1  2  1  0
  2  3  2  0
  3  4  1  0
  4  5  2  0
  5  6  1  0
  6  7  1  0
  7  8  2  0
  8  9  1  0
  9 10  1  0
 10 11  1  0
 11 12  2  0
 12 13  1  0
 13 14  2  0
 14 15  1  0
 15 16  1  0
 16 17  2  0
 17 18  1  0
 18 19  2  0
 19 20  1  0
 19 21  1  0
 21 22  1  0
 22 23  1  0
 22 24  1  0
 15 25  2  0
  9 26  2  0
 26 27  1  0
  5 28  1  0
 28 29  1  0
 29 30  1  0
 30 31  2  0
 31 32  1  0
 32 33  1  0
 33 34  1  0
 33 35  2  0
 32 36  2  0
 36 37  1  0
 28  2  1  0
 37 29  2  0
 27  6  2  0
 25 11  1  0
 21 16  1  0
  1 38  1  0
  1 39  1  0
  1 40  1  0
  4 41  1  0
  7 42  1  0
  8 43  1  0
 10 44  1  0
 13 45  1  0
 14 46  1  0
 17 47  1  0
 20 48  1  0
 20 49  1  0
 20 50  1  0
 22 51  1  0
 23 52  1  0
 23 53  1  0
 23 54  1  0
 24 55  1  0
 24 56  1  0
 24 57  1  0
 26 58  1  0
 27 59  1  0
 30 60  1  0
 31 61  1  0
 34 62  1  0
 34 63  1  0
 36 64  1  0
 37 65  1  0
M  END
>  <meeko>  (1) 
{"is_sidechain": false}

>  <smiles>  (1) 
Cc1ncc(-c2ccc(Nc3nccc(-c4cnc(C)n4C(C)C)n3)cc2)n1-c1ccc(C(N)=O)cc1

>  <vina_score>  (1) 
-9.534

>  <job_id>  (1) 
ee78ad68ed360355

$$$$
