
     RDKit          3D

 51 54  0  0  0  0  0  0  0  0999 V2000
   53.0370   81.6320   23.9040 C   0  0  0  0  0  0  0  0  0  0  0  0
   53.3060   80.4010   24.6940 C   0  0  0  0  0  0  0  0  0  0  0  0
   52.9300   79.1930   24.3330 N   0  0  0  0  0  0  0  0  0  0  0  0
   53.3970   78.3580   25.3030 C   0  0  0  0  0  0  0  0  0  0  0  0
   54.0640   79.0480   26.2980 C   0  0  0  0  0  0  0  0  0  0  0  0
   54.6970   78.5090   27.4910 C   0  0  0  0  0  0  0  0  0  0  0  0
   54.0350   77.6400   28.3230 C   0  0  0  0  0  0  0  0  0  0  0  0
   54.7600   77.1950   29.3950 C   0  0  0  0  0  0  0  0  0  0  0  0
   56.0320   77.5600   29.6310 N   0  0  0  0  0  0  0  0  0  0  0  0
   56.6080   78.3990   28.7580 C   0  0  0  0  0  0  0  0  0  0  0  0
   57.9250   78.8300   28.9020 N   0  0  0  0  0  0  0  0  0  0  0  0
   58.5400   79.8570   29.6230 C   0  0  0  0  0  0  0  0  0  0  0  0
   59.3100   80.8670   29.0460 C   0  0  0  0  0  0  0  0  0  0  0  0
   59.9090   81.8650   29.8290 C   0  0  0  0  0  0  0  0  0  0  0  0
   59.7610   81.8830   31.2220 C   0  0  0  0  0  0  0  0  0  0  0  0
   60.3890   82.9320   32.0420 C   0  0  0  0  0  0  0  0  0  0  0  0
   60.2020   82.9720   33.4340 C   0  0  0  0  0  0  0  0  0  0  0  0
   60.7990   83.9670   34.2140 C   0  0  0  0  0  0  0  0  0  0  0  0
   61.5930   84.9400   33.6140 C   0  0  0  0  0  0  0  0  0  0  0  0
   61.7920   84.9190   32.2360 C   0  0  0  0  0  0  0  0  0  0  0  0
   61.1950   83.9240   31.4580 C   0  0  0  0  0  0  0  0  0  0  0  0
   58.9940   80.8680   31.8050 C   0  0  0  0  0  0  0  0  0  0  0  0
   58.3960   79.8730   31.0190 C   0  0  0  0  0  0  0  0  0  0  0  0
   55.9720   78.8910   27.6840 N   0  0  0  0  0  0  0  0  0  0  0  0
   53.9790   80.3750   25.9090 N   0  0  0  0  0  0  0  0  0  0  0  0
   54.4400   81.5720   26.6130 C   0  0  0  0  0  0  0  0  0  0  0  0
   53.2860   82.4840   27.0290 C   0  0  0  0  0  0  0  0  0  0  0  0
   55.5630   82.3380   25.9090 C   0  0  0  0  0  0  0  0  0  0  0  0
   52.8531   82.4737   24.5879 H   0  0  0  0  0  0  0  0  0  0  0  0
   53.9069   81.8581   23.2699 H   0  0  0  0  0  0  0  0  0  0  0  0
   52.1520   81.4747   23.2699 H   0  0  0  0  0  0  0  0  0  0  0  0
   53.2599   77.2666   25.2953 H   0  0  0  0  0  0  0  0  0  0  0  0
   52.9971   77.3244   28.1410 H   0  0  0  0  0  0  0  0  0  0  0  0
   54.2768   76.5027   30.1001 H   0  0  0  0  0  0  0  0  0  0  0  0
   58.5300   78.1940   28.4040 H   0  0  0  0  0  0  0  0  0  0  0  0
   59.4503   80.8811   27.9551 H   0  0  0  0  0  0  0  0  0  0  0  0
   60.5064   82.6485   29.3398 H   0  0  0  0  0  0  0  0  0  0  0  0
   59.5757   82.2081   33.9180 H   0  0  0  0  0  0  0  0  0  0  0  0
   60.6411   83.9808   35.3025 H   0  0  0  0  0  0  0  0  0  0  0  0
   62.0622   85.7237   34.2269 H   0  0  0  0  0  0  0  0  0  0  0  0
   62.4198   85.6864   31.7596 H   0  0  0  0  0  0  0  0  0  0  0  0
   61.3586   83.9170   30.3703 H   0  0  0  0  0  0  0  0  0  0  0  0
   58.8583   80.8506   32.8965 H   0  0  0  0  0  0  0  0  0  0  0  0
   57.8007   79.0874   31.5073 H   0  0  0  0  0  0  0  0  0  0  0  0
   54.9032   81.1880   27.5339 H   0  0  0  0  0  0  0  0  0  0  0  0
   53.2306   82.5278   28.1267 H   0  0  0  0  0  0  0  0  0  0  0  0
   53.4553   83.4949   26.6298 H   0  0  0  0  0  0  0  0  0  0  0  0
   52.3416   82.0856   26.6298 H   0  0  0  0  0  0  0  0  0  0  0  0
   56.2260   82.7902   26.6613 H   0  0  0  0  0  0  0  0  0  0  0  0
   56.1411   81.6451   25.2799 H   0  0  0  0  0  0  0  0  0  0  0  0
   55.1289   83.1291   25.2799 H   0  0  0  0  0  0  0  0  0  0  0  0
  1  2  1  0
  2  3  2  0
  3  4  1  0
  4  5  2  0
  5  6  1  0
  6  7  1  0
  7  8  2  0
  8  9  1  0
  9 10  2  0
 10 11  1  0
 11 12  1  0
 12 13  1  0
 13 14  2  0
 14 15  1  0
 15 16  1  0
 16 17  2  0
 17 18  1  0
 18 19  2  0
 19 20  1  0
 20 21  2  0
 15 22  2  0
 22 23  1  0
 10 24  1  0
  5 25  1  0
 25 26  1  0
 26 27  1  0
 26 28  1  0
 25  2  1  0
 24  6  2  0
 23 12  2  0
 21 16  1  0
  1 29  1  0
  1 30  1  0
  1 31  1  0
  4 32  1  0
  7 33  1  0
  8 34  1  0
 11 35  1  0
 13 36  1  0
 14 37  1  0
 17 38  1  0
 18 39  1  0
 19 40  1  0
 20 41  1  0
 21 42  1  0
 22 43  1  0
 23 44  1  0
 26 45  1  0
 27 46  1  0
 27 47  1  0
 27 48  1  0
 28 49  1  0
 28 50  1  0
 28 51  1  0
M  END
>  <meeko>  (1) 
{"is_sidechain": false}

>  <smiles>  (1) 
Cc1ncc(-c2ccnc(Nc3ccc(-c4ccccc4)cc3)n2)n1C(C)C

>  <vina_score>  (1) 
-8.957

>  <job_id>  (1) 
ee91377d96962203

$$$$
