
     RDKit          3D

 60 63  0  0  0  0  0  0  0  0999 V2000
   53.3100   82.4610   27.1430 C   0  0  0  0  0  0  0  0  0  0  0  0
   52.8890   82.1230   25.7360 C   0  0  0  0  0  0  0  0  0  0  0  0
   52.9350   82.9730   24.8440 O   0  0  0  0  0  0  0  0  0  0  0  0
   52.4730   80.6820   25.4910 C   0  0  0  0  0  0  0  0  0  0  0  0
   53.8990   79.6120   25.1560 S   0  0  0  0  0  0  0  0  0  0  0  0
   53.9230   78.7330   26.6820 C   0  0  0  0  0  0  0  0  0  0  0  0
   52.9730   78.0280   27.0030 O   0  0  0  0  0  0  0  0  0  0  0  0
   55.0980   78.9010   27.5840 C   0  0  0  0  0  0  0  0  0  0  0  0
   55.2740   78.1800   28.7680 C   0  0  0  0  0  0  0  0  0  0  0  0
   56.4050   78.3990   29.5670 C   0  0  0  0  0  0  0  0  0  0  0  0
   57.3870   79.3390   29.2150 C   0  0  0  0  0  0  0  0  0  0  0  0
   58.4880   79.5030   30.0600 N   0  0  0  0  0  0  0  0  0  0  0  0
   58.7510   80.3030   31.1660 C   0  0  0  0  0  0  0  0  0  0  0  0
   57.8100   80.6070   32.0700 N   0  0  0  0  0  0  0  0  0  0  0  0
   58.1720   81.3960   33.1000 C   0  0  0  0  0  0  0  0  0  0  0  0
   59.4400   81.8900   33.2680 C   0  0  0  0  0  0  0  0  0  0  0  0
   59.7170   82.6850   34.3090 F   0  0  0  0  0  0  0  0  0  0  0  0
   60.3640   81.5370   32.3090 C   0  0  0  0  0  0  0  0  0  0  0  0
   61.7710   81.9830   32.3630 C   0  0  0  0  0  0  0  0  0  0  0  0
   62.5980   81.3580   33.2330 N   0  0  0  0  0  0  0  0  0  0  0  0
   63.8780   81.7830   33.2700 C   0  0  0  0  0  0  0  0  0  0  0  0
   64.3570   82.7990   32.4860 C   0  0  0  0  0  0  0  0  0  0  0  0
   65.6390   83.1780   32.5560 F   0  0  0  0  0  0  0  0  0  0  0  0
   63.4430   83.3940   31.6420 C   0  0  0  0  0  0  0  0  0  0  0  0
   63.8170   84.4600   30.7230 C   0  0  0  0  0  0  0  0  0  0  0  0
   64.5720   84.3570   29.5690 C   0  0  0  0  0  0  0  0  0  0  0  0
   64.7010   85.5570   28.9370 N   0  0  0  0  0  0  0  0  0  0  0  0
   64.0430   86.4210   29.6800 C   0  0  0  0  0  0  0  0  0  0  0  0
   63.8960   87.8640   29.3520 C   0  0  0  0  0  0  0  0  0  0  0  0
   63.5140   85.8090   30.8090 N   0  0  0  0  0  0  0  0  0  0  0  0
   62.8330   86.5360   31.8820 C   0  0  0  0  0  0  0  0  0  0  0  0
   61.3160   86.3540   31.8410 C   0  0  0  0  0  0  0  0  0  0  0  0
   63.4090   86.3060   33.2820 C   0  0  0  0  0  0  0  0  0  0  0  0
   62.1530   83.0010   31.5630 N   0  0  0  0  0  0  0  0  0  0  0  0
   60.0160   80.7410   31.2550 N   0  0  0  0  0  0  0  0  0  0  0  0
   57.1940   80.0590   28.0340 C   0  0  0  0  0  0  0  0  0  0  0  0
   56.0660   79.8490   27.2290 C   0  0  0  0  0  0  0  0  0  0  0  0
   52.6574   81.9371   27.8569 H   0  0  0  0  0  0  0  0  0  0  0  0
   54.3522   82.1460   27.2996 H   0  0  0  0  0  0  0  0  0  0  0  0
   53.2277   83.5467   27.2996 H   0  0  0  0  0  0  0  0  0  0  0  0
   51.9490   80.3070   26.3825 H   0  0  0  0  0  0  0  0  0  0  0  0
   51.8180   80.6625   24.6075 H   0  0  0  0  0  0  0  0  0  0  0  0
   54.5222   77.4377   29.0743 H   0  0  0  0  0  0  0  0  0  0  0  0
   56.5263   77.8193   30.4939 H   0  0  0  0  0  0  0  0  0  0  0  0
   59.3060   78.9450   29.8600 H   0  0  0  0  0  0  0  0  0  0  0  0
   57.4086   81.6584   33.8472 H   0  0  0  0  0  0  0  0  0  0  0  0
   64.5723   81.2884   33.9652 H   0  0  0  0  0  0  0  0  0  0  0  0
   65.0154   83.4185   29.2049 H   0  0  0  0  0  0  0  0  0  0  0  0
   63.8366   88.4474   30.2827 H   0  0  0  0  0  0  0  0  0  0  0  0
   64.7649   88.1970   28.7653 H   0  0  0  0  0  0  0  0  0  0  0  0
   62.9778   88.0150   28.7653 H   0  0  0  0  0  0  0  0  0  0  0  0
   63.0420   87.5946   31.6683 H   0  0  0  0  0  0  0  0  0  0  0  0
   60.9245   86.3070   32.8679 H   0  0  0  0  0  0  0  0  0  0  0  0
   60.8589   87.2037   31.3128 H   0  0  0  0  0  0  0  0  0  0  0  0
   61.0729   85.4202   31.3128 H   0  0  0  0  0  0  0  0  0  0  0  0
   62.6663   86.6026   34.0373 H   0  0  0  0  0  0  0  0  0  0  0  0
   63.6542   85.2410   33.4072 H   0  0  0  0  0  0  0  0  0  0  0  0
   64.3203   86.9092   33.4072 H   0  0  0  0  0  0  0  0  0  0  0  0
   57.9421   80.8057   27.7295 H   0  0  0  0  0  0  0  0  0  0  0  0
   55.9394   80.4358   26.3073 H   0  0  0  0  0  0  0  0  0  0  0  0
  1  2  1  0
  2  3  2  0
  2  4  1  0
  4  5  1  0
  5  6  1  0
  6  7  2  0
  6  8  1  0
  8  9  1  0
  9 10  2  0
 10 11  1  0
 11 12  1  0
 12 13  1  0
 13 14  2  0
 14 15  1  0
 15 16  2  0
 16 17  1  0
 16 18  1  0
 18 19  1  0
 19 20  2  0
 20 21  1  0
 21 22  2  0
 22 23  1  0
 22 24  1  0
 24 25  1  0
 25 26  2  0
 26 27  1  0
 27 28  2  0
 28 29  1  0
 28 30  1  0
 30 31  1  0
 31 32  1  0
 31 33  1  0
 24 34  2  0
 18 35  2  0
 11 36  2  0
 36 37  1  0
 37  8  2  0
 35 13  1  0
 34 19  1  0
 30 25  1  0
  1 38  1  0
  1 39  1  0
  1 40  1  0
  4 41  1  0
  4 42  1  0
  9 43  1  0
 10 44  1  0
 12 45  1  0
 15 46  1  0
 21 47  1  0
 26 48  1  0
 29 49  1  0
 29 50  1  0
 29 51  1  0
 31 52  1  0
 32 53  1  0
 32 54  1  0
 32 55  1  0
 33 56  1  0
 33 57  1  0
 33 58  1  0
 36 59  1  0
 37 60  1  0
M  END
>  <meeko>  (1) 
{"is_sidechain": false}

>  <smiles>  (1) 
CC(=O)CSC(=O)c1ccc(Nc2ncc(F)c(-c3ncc(F)c(-c4cnc(C)n4C(C)C)n3)n2)cc1

>  <vina_score>  (1) 
-7.800

>  <job_id>  (1) 
eeab0083c7556239

$$$$
