
     RDKit          3D

 56 61  0  0  0  0  0  0  0  0999 V2000
   62.2650   83.8080   37.9760 C   0  0  0  0  0  0  0  0  0  0  0  0
   61.8250   83.0420   36.7860 C   0  0  0  0  0  0  0  0  0  0  0  0
   61.6120   81.7400   36.7480 N   0  0  0  0  0  0  0  0  0  0  0  0
   61.1900   81.4610   35.4650 C   0  0  0  0  0  0  0  0  0  0  0  0
   60.8080   80.2510   34.8700 C   0  0  0  0  0  0  0  0  0  0  0  0
   60.8250   79.1030   35.5630 F   0  0  0  0  0  0  0  0  0  0  0  0
   60.3990   80.2320   33.5330 C   0  0  0  0  0  0  0  0  0  0  0  0
   60.3560   81.4020   32.7500 C   0  0  0  0  0  0  0  0  0  0  0  0
   59.9090   81.3370   31.3400 C   0  0  0  0  0  0  0  0  0  0  0  0
   59.2220   80.2120   31.0070 N   0  0  0  0  0  0  0  0  0  0  0  0
   58.7640   80.0930   29.7450 C   0  0  0  0  0  0  0  0  0  0  0  0
   58.0900   78.9060   29.4700 N   0  0  0  0  0  0  0  0  0  0  0  0
   56.8220   78.7800   28.8790 C   0  0  0  0  0  0  0  0  0  0  0  0
   55.9350   77.8600   29.4370 C   0  0  0  0  0  0  0  0  0  0  0  0
   54.6660   77.6990   28.8870 C   0  0  0  0  0  0  0  0  0  0  0  0
   54.2930   78.4650   27.7840 C   0  0  0  0  0  0  0  0  0  0  0  0
   55.2370   79.3520   27.2700 C   0  0  0  0  0  0  0  0  0  0  0  0
   56.4700   79.5220   27.8100 N   0  0  0  0  0  0  0  0  0  0  0  0
   54.8920   80.2320   26.0970 C   0  0  0  0  0  0  0  0  0  0  0  0
   53.6600   79.7270   25.3450 C   0  0  0  0  0  0  0  0  0  0  0  0
   52.5600   79.4010   26.2620 N   0  0  0  0  0  0  0  0  0  0  0  0
   52.9540   78.2790   27.1260 C   0  0  0  0  0  0  0  0  0  0  0  0
   58.9980   81.0050   28.7900 N   0  0  0  0  0  0  0  0  0  0  0  0
   59.6850   82.1070   29.1430 C   0  0  0  0  0  0  0  0  0  0  0  0
   60.1620   82.3250   30.4090 C   0  0  0  0  0  0  0  0  0  0  0  0
   60.8540   83.4370   30.6900 F   0  0  0  0  0  0  0  0  0  0  0  0
   60.7340   82.6240   33.3500 C   0  0  0  0  0  0  0  0  0  0  0  0
   61.1500   82.6200   34.6930 C   0  0  0  0  0  0  0  0  0  0  0  0
   61.5790   83.5980   35.5530 N   0  0  0  0  0  0  0  0  0  0  0  0
   61.6890   85.0510   35.2030 C   0  0  0  0  0  0  0  0  0  0  0  0
   60.3970   85.8160   35.3720 C   0  0  0  0  0  0  0  0  0  0  0  0
   62.9860   85.8040   35.4630 C   0  0  0  0  0  0  0  0  0  0  0  0
   62.5930   85.4830   34.0560 C   0  0  0  0  0  0  0  0  0  0  0  0
   61.9591   83.2754   38.8886 H   0  0  0  0  0  0  0  0  0  0  0  0
   63.3600   83.9112   37.9613 H   0  0  0  0  0  0  0  0  0  0  0  0
   61.8024   84.8059   37.9613 H   0  0  0  0  0  0  0  0  0  0  0  0
   60.1020   79.2750   33.0793 H   0  0  0  0  0  0  0  0  0  0  0  0
   58.1880   78.3130   30.2830 H   0  0  0  0  0  0  0  0  0  0  0  0
   56.2372   77.2627   30.3099 H   0  0  0  0  0  0  0  0  0  0  0  0
   53.9628   76.9723   29.3200 H   0  0  0  0  0  0  0  0  0  0  0  0
   54.6921   81.2498   26.4632 H   0  0  0  0  0  0  0  0  0  0  0  0
   55.7437   80.2198   25.4009 H   0  0  0  0  0  0  0  0  0  0  0  0
   53.3231   80.5080   24.6475 H   0  0  0  0  0  0  0  0  0  0  0  0
   53.9396   78.8103   24.8050 H   0  0  0  0  0  0  0  0  0  0  0  0
   52.3700   80.2100   26.8530 H   0  0  0  0  0  0  0  0  0  0  0  0
   52.1937   78.1624   27.9123 H   0  0  0  0  0  0  0  0  0  0  0  0
   53.0321   77.3898   26.4831 H   0  0  0  0  0  0  0  0  0  0  0  0
   59.8734   82.8723   28.3757 H   0  0  0  0  0  0  0  0  0  0  0  0
   60.7034   83.5621   32.7764 H   0  0  0  0  0  0  0  0  0  0  0  0
   60.1833   85.9425   36.4436 H   0  0  0  0  0  0  0  0  0  0  0  0
   60.4912   86.8040   34.8977 H   0  0  0  0  0  0  0  0  0  0  0  0
   59.5760   85.2584   34.8977 H   0  0  0  0  0  0  0  0  0  0  0  0
   62.9541   86.8449   35.8173 H   0  0  0  0  0  0  0  0  0  0  0  0
   63.8784   85.6191   36.0789 H   0  0  0  0  0  0  0  0  0  0  0  0
   62.2727   86.2884   33.3787 H   0  0  0  0  0  0  0  0  0  0  0  0
   63.0781   84.9658   33.2151 H   0  0  0  0  0  0  0  0  0  0  0  0
  1  2  1  0
  2  3  2  0
  3  4  1  0
  4  5  2  0
  5  6  1  0
  5  7  1  0
  7  8  2  0
  8  9  1  0
  9 10  2  0
 10 11  1  0
 11 12  1  0
 12 13  1  0
 13 14  1  0
 14 15  2  0
 15 16  1  0
 16 17  2  0
 17 18  1  0
 17 19  1  0
 19 20  1  0
 20 21  1  0
 21 22  1  0
 11 23  2  0
 23 24  1  0
 24 25  2  0
 25 26  1  0
  8 27  1  0
 27 28  2  0
 28 29  1  0
 29 30  1  0
 30 31  1  0
 30 32  1  0
 32 33  1  0
 29  2  1  0
 33 30  1  0
 28  4  1  0
 25  9  1  0
 18 13  2  0
 22 16  1  0
  1 34  1  0
  1 35  1  0
  1 36  1  0
  7 37  1  0
 12 38  1  0
 14 39  1  0
 15 40  1  0
 19 41  1  0
 19 42  1  0
 20 43  1  0
 20 44  1  0
 21 45  1  0
 22 46  1  0
 22 47  1  0
 24 48  1  0
 27 49  1  0
 31 50  1  0
 31 51  1  0
 31 52  1  0
 32 53  1  0
 32 54  1  0
 33 55  1  0
 33 56  1  0
M  END
>  <meeko>  (1) 
{"is_sidechain": false}

>  <smiles>  (1) 
Cc1nc2c(F)cc(-c3nc(Nc4ccc5c(n4)CCNC5)ncc3F)cc2n1C1(C)CC1

>  <vina_score>  (1) 
-8.902

>  <job_id>  (1) 
eeb49f2332087818

$$$$
