
     RDKit          3D

 47 49  0  0  0  0  0  0  0  0999 V2000
   60.4430   82.1070   29.1560 C   0  0  0  0  0  0  0  0  0  0  0  0
   59.1510   82.2290   29.9710 C   0  0  1  0  0  0  0  0  0  0  0  0
   58.0670   81.4710   29.3590 N   0  0  0  0  0  0  0  0  0  0  0  0
   58.2210   80.1480   29.0490 C   0  0  0  0  0  0  0  0  0  0  0  0
   59.2670   79.5460   29.2710 O   0  0  0  0  0  0  0  0  0  0  0  0
   57.1290   79.5430   28.4530 N   0  0  0  0  0  0  0  0  0  0  0  0
   56.6010   78.2170   28.7770 C   0  0  0  0  0  0  0  0  0  0  0  0
   55.0740   78.1870   28.7190 C   0  0  0  0  0  0  0  0  0  0  0  0
   54.5770   78.7310   27.4200 C   0  0  0  0  0  0  0  0  0  0  0  0
   53.3690   78.3570   26.8690 C   0  0  0  0  0  0  0  0  0  0  0  0
   52.9000   78.8500   25.7090 N   0  0  0  0  0  0  0  0  0  0  0  0
   53.6550   79.7850   25.1380 C   0  0  0  0  0  0  0  0  0  0  0  0
   53.3240   80.2370   23.8630 N   0  0  0  0  0  0  0  0  0  0  0  0
   52.1540   81.4230   23.8340 S   0  0  0  0  0  0  0  0  0  0  0  0
   50.9870   80.9820   24.5700 O   0  0  0  0  0  0  0  0  0  0  0  0
   52.8220   82.6480   24.2330 O   0  0  0  0  0  0  0  0  0  0  0  0
   51.5690   81.7480   21.7950 S   0  0  0  0  0  0  0  0  0  0  0  0
   49.9350   81.3570   21.8180 N   0  0  0  0  0  0  0  0  0  0  0  0
   54.8550   80.2020   25.5480 N   0  0  0  0  0  0  0  0  0  0  0  0
   55.2980   79.6830   26.7170 C   0  0  0  0  0  0  0  0  0  0  0  0
   56.6280   80.1870   27.2320 C   0  0  0  0  0  0  0  0  0  0  0  0
   59.2800   81.7900   31.4230 C   0  0  0  0  0  0  0  0  0  0  0  0
   58.1860   81.7030   32.2960 C   0  0  0  0  0  0  0  0  0  0  0  0
   58.3670   81.3240   33.6300 C   0  0  0  0  0  0  0  0  0  0  0  0
   59.6440   81.0360   34.1180 C   0  0  0  0  0  0  0  0  0  0  0  0
   59.7890   80.5800   35.7770 Cl  0  0  0  0  0  0  0  0  0  0  0  0
   60.7470   81.1320   33.2660 C   0  0  0  0  0  0  0  0  0  0  0  0
   62.3590   80.8070   33.7950 Cl  0  0  0  0  0  0  0  0  0  0  0  0
   60.5630   81.5090   31.9310 C   0  0  0  0  0  0  0  0  0  0  0  0
   61.3012   82.0260   29.8393 H   0  0  0  0  0  0  0  0  0  0  0  0
   60.3932   81.2096   28.5219 H   0  0  0  0  0  0  0  0  0  0  0  0
   60.5620   82.9979   28.5219 H   0  0  0  0  0  0  0  0  0  0  0  0
   58.9277   83.3061   29.9685 H   0  0  0  0  0  0  0  0  0  0  0  0
   57.1420   81.7640   29.6190 H   0  0  0  0  0  0  0  0  0  0  0  0
   56.9995   77.4885   28.0555 H   0  0  0  0  0  0  0  0  0  0  0  0
   56.9102   77.9659   29.8023 H   0  0  0  0  0  0  0  0  0  0  0  0
   54.7302   77.1479   28.8290 H   0  0  0  0  0  0  0  0  0  0  0  0
   54.6800   78.8116   29.5343 H   0  0  0  0  0  0  0  0  0  0  0  0
   52.7576   77.6171   27.4063 H   0  0  0  0  0  0  0  0  0  0  0  0
   54.1700   80.5590   23.4030 H   0  0  0  0  0  0  0  0  0  0  0  0
   49.5100   81.6670   20.9390 H   0  0  0  0  0  0  0  0  0  0  0  0
   49.4650   81.9120   22.5350 H   0  0  0  0  0  0  0  0  0  0  0  0
   57.3757   80.0349   26.4397 H   0  0  0  0  0  0  0  0  0  0  0  0
   56.4638   81.2417   27.4978 H   0  0  0  0  0  0  0  0  0  0  0  0
   57.1757   81.9351   31.9280 H   0  0  0  0  0  0  0  0  0  0  0  0
   57.4975   81.2521   34.2999 H   0  0  0  0  0  0  0  0  0  0  0  0
   61.4361   81.5873   31.2665 H   0  0  0  0  0  0  0  0  0  0  0  0
  1  2  1  0
  2  3  1  0
  3  4  1  0
  4  5  2  0
  4  6  1  0
  6  7  1  0
  7  8  1  0
  8  9  1  0
  9 10  2  0
 10 11  1  0
 11 12  2  0
 12 13  1  0
 13 14  1  0
 14 15  2  0
 14 16  2  0
 14 17  1  0
 17 18  1  0
 12 19  1  0
 19 20  2  0
 20 21  1  0
  2 22  1  0
 22 23  1  0
 23 24  2  0
 24 25  1  0
 25 26  1  0
 25 27  2  0
 27 28  1  0
 27 29  1  0
 21  6  1  0
 29 22  2  0
 20  9  1  0
  1 30  1  0
  1 31  1  0
  1 32  1  0
  2 33  1  1
  3 34  1  0
  7 35  1  0
  7 36  1  0
  8 37  1  0
  8 38  1  0
 10 39  1  0
 13 40  1  0
 18 41  1  0
 18 42  1  0
 21 43  1  0
 21 44  1  0
 23 45  1  0
 24 46  1  0
 29 47  1  0
M  END
>  <meeko>  (1) 
{"is_sidechain": false}

>  <smiles>  (1) 
C[C@@H](NC(=O)N1CCc2cnc(NS(=O)(=O)SN)nc2C1)c1ccc(Cl)c(Cl)c1

>  <vina_score>  (1) 
-8.840

>  <job_id>  (1) 
eede82effb2c7ade

$$$$
