
     RDKit          3D

 63 66  0  0  0  0  0  0  0  0999 V2000
   65.6490   85.8570   27.6470 C   0  0  0  0  0  0  0  0  0  0  0  0
   65.8970   85.7890   28.9640 C   0  0  0  0  0  0  0  0  0  0  0  0
   66.4350   86.9500   29.7470 C   0  0  0  0  0  0  0  0  0  0  0  0
   65.7300   84.5190   29.7420 C   0  0  0  0  0  0  0  0  0  0  0  0
   66.6920   83.7800   29.9370 O   0  0  0  0  0  0  0  0  0  0  0  0
   64.4020   84.1440   30.2900 C   0  0  0  0  0  0  0  0  0  0  0  0
   63.3920   85.0920   30.4860 C   0  0  0  0  0  0  0  0  0  0  0  0
   62.1620   84.6990   31.0200 C   0  0  0  0  0  0  0  0  0  0  0  0
   61.9310   83.3600   31.3750 C   0  0  0  0  0  0  0  0  0  0  0  0
   60.5970   82.9370   31.9490 C   0  0  0  0  0  0  0  0  0  0  0  0
   59.8920   81.8730   31.1400 C   0  0  0  0  0  0  0  0  0  0  0  0
   59.9280   81.8930   29.7430 C   0  0  0  0  0  0  0  0  0  0  0  0
   59.2730   80.9020   29.0030 C   0  0  0  0  0  0  0  0  0  0  0  0
   58.5660   79.8630   29.6290 C   0  0  0  0  0  0  0  0  0  0  0  0
   57.9310   78.9110   28.8260 N   0  0  0  0  0  0  0  0  0  0  0  0
   56.6190   78.4650   28.7030 C   0  0  0  0  0  0  0  0  0  0  0  0
   56.0680   77.6100   29.5810 N   0  0  0  0  0  0  0  0  0  0  0  0
   54.7930   77.2290   29.3630 C   0  0  0  0  0  0  0  0  0  0  0  0
   54.0450   77.6760   28.3080 C   0  0  0  0  0  0  0  0  0  0  0  0
   52.7820   77.2670   28.1330 F   0  0  0  0  0  0  0  0  0  0  0  0
   54.6740   78.5640   27.4670 C   0  0  0  0  0  0  0  0  0  0  0  0
   54.0230   79.1070   26.2830 C   0  0  0  0  0  0  0  0  0  0  0  0
   53.3510   78.4140   25.2920 C   0  0  0  0  0  0  0  0  0  0  0  0
   52.8920   79.2450   24.3150 N   0  0  0  0  0  0  0  0  0  0  0  0
   53.2570   80.4560   24.6780 C   0  0  0  0  0  0  0  0  0  0  0  0
   52.9840   81.6850   23.8860 C   0  0  0  0  0  0  0  0  0  0  0  0
   53.9220   80.4340   25.8970 N   0  0  0  0  0  0  0  0  0  0  0  0
   54.3480   81.6380   26.6130 C   0  0  0  0  0  0  0  0  0  0  0  0
   53.1860   82.5920   26.8930 C   0  0  0  0  0  0  0  0  0  0  0  0
   55.5570   82.3540   26.0060 C   0  0  0  0  0  0  0  0  0  0  0  0
   55.9530   78.9610   27.6460 N   0  0  0  0  0  0  0  0  0  0  0  0
   58.5320   79.8570   31.0250 C   0  0  0  0  0  0  0  0  0  0  0  0
   59.1850   80.8460   31.7740 C   0  0  0  0  0  0  0  0  0  0  0  0
   62.9590   82.4240   31.1980 C   0  0  0  0  0  0  0  0  0  0  0  0
   64.1900   82.8140   30.6650 C   0  0  0  0  0  0  0  0  0  0  0  0
   65.2544   84.9784   27.1156 H   0  0  0  0  0  0  0  0  0  0  0  0
   65.8403   86.7913   27.0988 H   0  0  0  0  0  0  0  0  0  0  0  0
   66.3389   86.7426   30.8230 H   0  0  0  0  0  0  0  0  0  0  0  0
   67.4952   87.1017   29.4961 H   0  0  0  0  0  0  0  0  0  0  0  0
   65.8654   87.8570   29.4961 H   0  0  0  0  0  0  0  0  0  0  0  0
   63.5659   86.1451   30.2201 H   0  0  0  0  0  0  0  0  0  0  0  0
   61.3670   85.4456   31.1637 H   0  0  0  0  0  0  0  0  0  0  0  0
   60.7647   82.5464   32.9635 H   0  0  0  0  0  0  0  0  0  0  0  0
   59.9494   83.8261   31.9405 H   0  0  0  0  0  0  0  0  0  0  0  0
   60.4746   82.6927   29.2218 H   0  0  0  0  0  0  0  0  0  0  0  0
   59.3131   80.9380   27.9043 H   0  0  0  0  0  0  0  0  0  0  0  0
   58.5220   78.3610   28.2210 H   0  0  0  0  0  0  0  0  0  0  0  0
   54.3309   76.5232   30.0689 H   0  0  0  0  0  0  0  0  0  0  0  0
   53.2050   77.3237   25.2928 H   0  0  0  0  0  0  0  0  0  0  0  0
   52.7970   82.5271   24.5686 H   0  0  0  0  0  0  0  0  0  0  0  0
   53.8534   81.9132   23.2518 H   0  0  0  0  0  0  0  0  0  0  0  0
   52.0998   81.5237   23.2518 H   0  0  0  0  0  0  0  0  0  0  0  0
   54.7084   81.2660   27.5834 H   0  0  0  0  0  0  0  0  0  0  0  0
   53.0542   82.7002   27.9797 H   0  0  0  0  0  0  0  0  0  0  0  0
   53.4039   83.5751   26.4504 H   0  0  0  0  0  0  0  0  0  0  0  0
   52.2641   82.1868   26.4504 H   0  0  0  0  0  0  0  0  0  0  0  0
   56.2005   82.7351   26.8126 H   0  0  0  0  0  0  0  0  0  0  0  0
   56.1273   81.6479   25.3846 H   0  0  0  0  0  0  0  0  0  0  0  0
   55.2120   83.1935   25.3846 H   0  0  0  0  0  0  0  0  0  0  0  0
   57.9819   79.0604   31.5474 H   0  0  0  0  0  0  0  0  0  0  0  0
   59.1409   80.8140   32.8726 H   0  0  0  0  0  0  0  0  0  0  0  0
   62.7952   81.3737   31.4811 H   0  0  0  0  0  0  0  0  0  0  0  0
   64.9938   82.0735   30.5402 H   0  0  0  0  0  0  0  0  0  0  0  0
  1  2  2  0
  2  3  1  0
  2  4  1  0
  4  5  2  0
  4  6  1  0
  6  7  1  0
  7  8  2  0
  8  9  1  0
  9 10  1  0
 10 11  1  0
 11 12  1  0
 12 13  2  0
 13 14  1  0
 14 15  1  0
 15 16  1  0
 16 17  2  0
 17 18  1  0
 18 19  2  0
 19 20  1  0
 19 21  1  0
 21 22  1  0
 22 23  2  0
 23 24  1  0
 24 25  2  0
 25 26  1  0
 25 27  1  0
 27 28  1  0
 28 29  1  0
 28 30  1  0
 21 31  2  0
 14 32  2  0
 32 33  1  0
  9 34  2  0
 34 35  1  0
 35  6  2  0
 33 11  2  0
 31 16  1  0
 27 22  1  0
  1 36  1  0
  1 37  1  0
  3 38  1  0
  3 39  1  0
  3 40  1  0
  7 41  1  0
  8 42  1  0
 10 43  1  0
 10 44  1  0
 12 45  1  0
 13 46  1  0
 15 47  1  0
 18 48  1  0
 23 49  1  0
 26 50  1  0
 26 51  1  0
 26 52  1  0
 28 53  1  0
 29 54  1  0
 29 55  1  0
 29 56  1  0
 30 57  1  0
 30 58  1  0
 30 59  1  0
 32 60  1  0
 33 61  1  0
 34 62  1  0
 35 63  1  0
M  END
>  <meeko>  (1) 
{"is_sidechain": false}

>  <smiles>  (1) 
C=C(C)C(=O)c1ccc(Cc2ccc(Nc3ncc(F)c(-c4cnc(C)n4C(C)C)n3)cc2)cc1

>  <vina_score>  (1) 
-9.565

>  <job_id>  (1) 
eee4fb7f78a2928a

$$$$
