
     RDKit          3D

 53 54  0  0  0  0  0  0  0  0999 V2000
   57.4530   87.7080   29.6620 C   0  0  0  0  0  0  0  0  0  0  0  0
   56.4280   88.0120   28.6740 N   0  0  0  0  0  0  0  0  0  0  0  0
   55.5140   89.0450   29.1360 C   0  0  0  0  0  0  0  0  0  0  0  0
   56.9660   88.2520   27.3240 C   0  0  0  0  0  0  0  0  0  0  0  0
   56.3720   87.5260   26.0920 C   0  0  0  0  0  0  0  0  0  0  0  0
   57.4340   86.8380   25.4080 O   0  0  0  0  0  0  0  0  0  0  0  0
   55.1860   86.5710   26.3570 C   0  0  0  0  0  0  0  0  0  0  0  0
   55.5620   85.2620   26.9140 N   0  0  0  0  0  0  0  0  0  0  0  0
   54.9320   84.1200   26.4120 C   0  0  0  0  0  0  0  0  0  0  0  0
   55.6680   82.9380   26.3440 C   0  0  0  0  0  0  0  0  0  0  0  0
   55.0870   81.7820   25.8170 C   0  0  0  0  0  0  0  0  0  0  0  0
   53.7750   81.8320   25.3550 C   0  0  0  0  0  0  0  0  0  0  0  0
   53.0560   80.6750   24.7810 C   0  0  0  0  0  0  0  0  0  0  0  0
   51.8960   80.7220   24.4070 O   0  0  0  0  0  0  0  0  0  0  0  0
   53.8620   79.5840   24.7470 O   0  0  0  0  0  0  0  0  0  0  0  0
   53.3170   78.3950   25.3440 C   0  0  0  0  0  0  0  0  0  0  0  0
   52.9340   78.6560   26.8010 C   0  0  0  0  0  0  0  0  0  0  0  0
   54.0280   78.2440   27.7530 C   0  0  0  0  0  0  0  0  0  0  0  0
   53.8210   77.1850   28.6460 C   0  0  0  0  0  0  0  0  0  0  0  0
   54.8330   76.7900   29.5200 C   0  0  0  0  0  0  0  0  0  0  0  0
   56.0640   77.4440   29.5070 C   0  0  0  0  0  0  0  0  0  0  0  0
   56.2990   78.4990   28.6120 C   0  0  0  0  0  0  0  0  0  0  0  0
   57.6220   79.2230   28.6090 C   0  0  0  0  0  0  0  0  0  0  0  0
   57.6650   80.2220   27.6850 F   0  0  0  0  0  0  0  0  0  0  0  0
   57.9180   79.8070   29.8040 F   0  0  0  0  0  0  0  0  0  0  0  0
   58.6760   78.4060   28.3260 F   0  0  0  0  0  0  0  0  0  0  0  0
   55.2690   78.8950   27.7420 C   0  0  0  0  0  0  0  0  0  0  0  0
   53.1160   83.0490   25.4370 C   0  0  0  0  0  0  0  0  0  0  0  0
   53.6710   84.1850   25.9420 N   0  0  0  0  0  0  0  0  0  0  0  0
   57.0364   87.8316   30.6725 H   0  0  0  0  0  0  0  0  0  0  0  0
   57.7932   86.6703   29.5300 H   0  0  0  0  0  0  0  0  0  0  0  0
   58.3040   88.3924   29.5300 H   0  0  0  0  0  0  0  0  0  0  0  0
   55.5019   89.0587   30.2358 H   0  0  0  0  0  0  0  0  0  0  0  0
   55.8471   90.0239   28.7608 H   0  0  0  0  0  0  0  0  0  0  0  0
   54.5018   88.8336   28.7608 H   0  0  0  0  0  0  0  0  0  0  0  0
   56.8626   89.3302   27.1325 H   0  0  0  0  0  0  0  0  0  0  0  0
   57.9808   87.8325   27.3881 H   0  0  0  0  0  0  0  0  0  0  0  0
   55.9249   88.3171   25.4721 H   0  0  0  0  0  0  0  0  0  0  0  0
   57.8500   87.5050   24.8180 H   0  0  0  0  0  0  0  0  0  0  0  0
   54.5032   87.0616   27.0663 H   0  0  0  0  0  0  0  0  0  0  0  0
   54.7243   86.3709   25.3789 H   0  0  0  0  0  0  0  0  0  0  0  0
   55.4690   85.2630   27.9260 H   0  0  0  0  0  0  0  0  0  0  0  0
   56.7067   82.9156   26.7055 H   0  0  0  0  0  0  0  0  0  0  0  0
   55.6593   80.8439   25.7678 H   0  0  0  0  0  0  0  0  0  0  0  0
   52.4220   78.0861   24.7840 H   0  0  0  0  0  0  0  0  0  0  0  0
   54.0767   77.6001   25.3123 H   0  0  0  0  0  0  0  0  0  0  0  0
   52.7367   79.7305   26.9297 H   0  0  0  0  0  0  0  0  0  0  0  0
   52.0397   78.0580   27.0305 H   0  0  0  0  0  0  0  0  0  0  0  0
   52.8536   76.6615   28.6579 H   0  0  0  0  0  0  0  0  0  0  0  0
   54.6596   75.9605   30.2213 H   0  0  0  0  0  0  0  0  0  0  0  0
   56.8564   77.1310   30.2029 H   0  0  0  0  0  0  0  0  0  0  0  0
   55.4391   79.7271   27.0430 H   0  0  0  0  0  0  0  0  0  0  0  0
   52.0799   83.0999   25.0711 H   0  0  0  0  0  0  0  0  0  0  0  0
  1  2  1  0
  2  3  1  0
  2  4  1  0
  4  5  1  0
  5  6  1  0
  5  7  1  0
  7  8  1  0
  8  9  1  0
  9 10  2  0
 10 11  1  0
 11 12  2  0
 12 13  1  0
 13 14  2  0
 13 15  1  0
 15 16  1  0
 16 17  1  0
 17 18  1  0
 18 19  2  0
 19 20  1  0
 20 21  2  0
 21 22  1  0
 22 23  1  0
 23 24  1  0
 23 25  1  0
 23 26  1  0
 22 27  2  0
 12 28  1  0
 28 29  2  0
 29  9  1  0
 27 18  1  0
  1 30  1  0
  1 31  1  0
  1 32  1  0
  3 33  1  0
  3 34  1  0
  3 35  1  0
  4 36  1  0
  4 37  1  0
  5 38  1  0
  6 39  1  0
  7 40  1  0
  7 41  1  0
  8 42  1  0
 10 43  1  0
 11 44  1  0
 16 45  1  0
 16 46  1  0
 17 47  1  0
 17 48  1  0
 19 49  1  0
 20 50  1  0
 21 51  1  0
 27 52  1  0
 28 53  1  0
M  END
>  <meeko>  (1) 
{"is_sidechain": false}

>  <smiles>  (1) 
CN(C)CC(O)CNc1ccc(C(=O)OCCc2cccc(C(F)(F)F)c2)cn1

>  <vina_score>  (1) 
-7.700

>  <job_id>  (1) 
ef0858dd0a1d8e0a

$$$$
