
     RDKit          3D

 69 74  0  0  0  0  0  0  0  0999 V2000
   65.0490   88.9370   25.4750 C   0  0  0  0  0  0  0  0  0  0  0  0
   64.5630   87.7580   26.1850 N   0  0  0  0  0  0  0  0  0  0  0  0
   63.6040   88.1150   27.2560 C   0  0  0  0  0  0  0  0  0  0  0  0
   64.1810   88.0620   28.6870 C   0  0  0  0  0  0  0  0  0  0  0  0
   64.7150   86.7220   29.0100 N   0  0  0  0  0  0  0  0  0  0  0  0
   64.0190   85.8820   29.8860 C   0  0  0  0  0  0  0  0  0  0  0  0
   64.3090   84.5100   29.9000 C   0  0  0  0  0  0  0  0  0  0  0  0
   63.6420   83.6220   30.7540 C   0  0  0  0  0  0  0  0  0  0  0  0
   62.6710   84.0820   31.6450 C   0  0  0  0  0  0  0  0  0  0  0  0
   61.9410   83.2050   32.4790 N   0  0  0  0  0  0  0  0  0  0  0  0
   60.5850   83.0660   32.3640 N   0  0  0  0  0  0  0  0  0  0  0  0
   60.0000   82.0880   31.5510 C   0  0  0  0  0  0  0  0  0  0  0  0
   59.2310   81.0630   32.0600 C   0  0  0  0  0  0  0  0  0  0  0  0
   58.6820   80.0710   31.3230 N   0  0  0  0  0  0  0  0  0  0  0  0
   58.9290   80.0690   30.0070 C   0  0  0  0  0  0  0  0  0  0  0  0
   58.4170   79.1070   29.1640 N   0  0  0  0  0  0  0  0  0  0  0  0
   57.1310   78.7680   28.8060 C   0  0  0  0  0  0  0  0  0  0  0  0
   56.5000   77.7080   29.3400 N   0  0  0  0  0  0  0  0  0  0  0  0
   55.2450   77.4410   28.9360 C   0  0  0  0  0  0  0  0  0  0  0  0
   54.5840   78.1900   27.9990 C   0  0  0  0  0  0  0  0  0  0  0  0
   55.3110   79.2690   27.5200 C   0  0  0  0  0  0  0  0  0  0  0  0
   56.5620   79.5760   27.8940 N   0  0  0  0  0  0  0  0  0  0  0  0
   54.6740   80.1030   26.5190 C   0  0  0  0  0  0  0  0  0  0  0  0
   53.4860   79.7710   25.8980 C   0  0  0  0  0  0  0  0  0  0  0  0
   53.2090   80.8320   25.0030 C   0  0  0  0  0  0  0  0  0  0  0  0
   52.0690   80.9630   24.0850 C   0  0  0  0  0  0  0  0  0  0  0  0
   52.4240   81.0610   22.7680 N   0  0  0  0  0  0  0  0  0  0  0  0
   50.8960   80.9820   24.4390 O   0  0  0  0  0  0  0  0  0  0  0  0
   54.1730   81.7790   25.0770 N   0  0  0  0  0  0  0  0  0  0  0  0
   55.0480   81.3040   25.9970 N   0  0  0  0  0  0  0  0  0  0  0  0
   56.2180   82.0850   26.3240 C   0  0  0  0  0  0  0  0  0  0  0  0
   52.7810   78.4890   26.1860 C   0  0  0  0  0  0  0  0  0  0  0  0
   53.1520   77.9450   27.5900 C   0  0  0  0  0  0  0  0  0  0  0  0
   59.6960   80.9980   29.4090 N   0  0  0  0  0  0  0  0  0  0  0  0
   60.2210   81.9690   30.1950 C   0  0  0  0  0  0  0  0  0  0  0  0
   62.3460   85.4410   31.6140 C   0  0  0  0  0  0  0  0  0  0  0  0
   63.0180   86.3260   30.7580 C   0  0  0  0  0  0  0  0  0  0  0  0
   65.2940   85.9960   27.8490 C   0  0  0  0  0  0  0  0  0  0  0  0
   65.6970   86.9690   26.7190 C   0  0  0  0  0  0  0  0  0  0  0  0
   65.3634   89.6996   26.2028 H   0  0  0  0  0  0  0  0  0  0  0  0
   65.9053   88.6577   24.8436 H   0  0  0  0  0  0  0  0  0  0  0  0
   64.2446   89.3423   24.8436 H   0  0  0  0  0  0  0  0  0  0  0  0
   63.2475   89.1386   27.0686 H   0  0  0  0  0  0  0  0  0  0  0  0
   62.8030   87.3621   27.2174 H   0  0  0  0  0  0  0  0  0  0  0  0
   64.9927   88.7996   28.7720 H   0  0  0  0  0  0  0  0  0  0  0  0
   63.3688   88.2878   29.3936 H   0  0  0  0  0  0  0  0  0  0  0  0
   65.0819   84.1201   29.2214 H   0  0  0  0  0  0  0  0  0  0  0  0
   63.8863   82.5500   30.7220 H   0  0  0  0  0  0  0  0  0  0  0  0
   62.4570   82.3440   32.6690 H   0  0  0  0  0  0  0  0  0  0  0  0
   60.0460   83.9300   32.4350 H   0  0  0  0  0  0  0  0  0  0  0  0
   59.0509   81.0513   33.1451 H   0  0  0  0  0  0  0  0  0  0  0  0
   59.1230   78.5210   28.7600 H   0  0  0  0  0  0  0  0  0  0  0  0
   54.7245   76.5795   29.3796 H   0  0  0  0  0  0  0  0  0  0  0  0
   53.4080   81.0010   22.5310 H   0  0  0  0  0  0  0  0  0  0  0  0
   51.7120   81.1130   22.0580 H   0  0  0  0  0  0  0  0  0  0  0  0
   56.3197   82.1529   27.4172 H   0  0  0  0  0  0  0  0  0  0  0  0
   57.1113   81.6015   25.9019 H   0  0  0  0  0  0  0  0  0  0  0  0
   56.1141   83.0955   25.9019 H   0  0  0  0  0  0  0  0  0  0  0  0
   51.6952   78.6598   26.1433 H   0  0  0  0  0  0  0  0  0  0  0  0
   53.0882   77.7473   25.4340 H   0  0  0  0  0  0  0  0  0  0  0  0
   52.4963   78.4278   28.3296 H   0  0  0  0  0  0  0  0  0  0  0  0
   53.0219   76.8536   27.5465 H   0  0  0  0  0  0  0  0  0  0  0  0
   60.8707   82.7167   29.7166 H   0  0  0  0  0  0  0  0  0  0  0  0
   61.5507   85.8226   32.2712 H   0  0  0  0  0  0  0  0  0  0  0  0
   62.7523   87.3933   30.7723 H   0  0  0  0  0  0  0  0  0  0  0  0
   66.1857   85.4440   28.1808 H   0  0  0  0  0  0  0  0  0  0  0  0
   64.5315   85.3070   27.4567 H   0  0  0  0  0  0  0  0  0  0  0  0
   66.4512   87.6662   27.1127 H   0  0  0  0  0  0  0  0  0  0  0  0
   66.0847   86.3586   25.8900 H   0  0  0  0  0  0  0  0  0  0  0  0
  1  2  1  0
  2  3  1  0
  3  4  1  0
  4  5  1  0
  5  6  1  0
  6  7  1  0
  7  8  2  0
  8  9  1  0
  9 10  1  0
 10 11  1  0
 11 12  1  0
 12 13  2  0
 13 14  1  0
 14 15  2  0
 15 16  1  0
 16 17  1  0
 17 18  2  0
 18 19  1  0
 19 20  2  0
 20 21  1  0
 21 22  2  0
 21 23  1  0
 23 24  2  0
 24 25  1  0
 25 26  1  0
 26 27  1  0
 26 28  2  0
 25 29  2  0
 29 30  1  0
 30 31  1  0
 24 32  1  0
 32 33  1  0
 15 34  1  0
 34 35  2  0
  9 36  2  0
 36 37  1  0
  5 38  1  0
 38 39  1  0
 39  2  1  0
 37  6  2  0
 35 12  1  0
 22 17  1  0
 30 23  1  0
 33 20  1  0
  1 40  1  0
  1 41  1  0
  1 42  1  0
  3 43  1  0
  3 44  1  0
  4 45  1  0
  4 46  1  0
  7 47  1  0
  8 48  1  0
 10 49  1  0
 11 50  1  0
 13 51  1  0
 16 52  1  0
 19 53  1  0
 27 54  1  0
 27 55  1  0
 31 56  1  0
 31 57  1  0
 31 58  1  0
 32 59  1  0
 32 60  1  0
 33 61  1  0
 33 62  1  0
 35 63  1  0
 36 64  1  0
 37 65  1  0
 38 66  1  0
 38 67  1  0
 39 68  1  0
 39 69  1  0
M  END
>  <meeko>  (1) 
{"is_sidechain": false}

>  <smiles>  (1) 
CN1CCN(c2ccc(NNc3cnc(Nc4ncc5c(n4)-c4c(c(C(N)=O)nn4C)CC5)nc3)cc2)CC1

>  <vina_score>  (1) 
-9.301

>  <job_id>  (1) 
ef74569411676507

$$$$
