
     RDKit          3D

 49 51  0  0  0  0  0  0  0  0999 V2000
   54.6000   84.5330   26.1450 C   0  0  0  0  0  0  0  0  0  0  0  0
   53.6630   83.4080   26.0740 N   0  0  0  0  0  0  0  0  0  0  0  0
   54.1310   81.9710   26.8430 S   0  0  0  0  0  0  0  0  0  0  0  0
   53.3100   81.7980   28.0190 O   0  0  0  0  0  0  0  0  0  0  0  0
   55.5730   82.0730   26.8840 O   0  0  0  0  0  0  0  0  0  0  0  0
   53.6880   80.7110   25.6700 C   0  0  0  0  0  0  0  0  0  0  0  0
   53.0710   81.0990   24.4710 C   0  0  0  0  0  0  0  0  0  0  0  0
   52.7860   80.1440   23.5060 C   0  0  0  0  0  0  0  0  0  0  0  0
   52.2000   80.5190   22.3620 F   0  0  0  0  0  0  0  0  0  0  0  0
   53.1080   78.8110   23.7040 C   0  0  0  0  0  0  0  0  0  0  0  0
   53.7160   78.4220   24.9000 C   0  0  0  0  0  0  0  0  0  0  0  0
   54.0120   79.3600   25.9150 C   0  0  0  0  0  0  0  0  0  0  0  0
   54.6090   78.8830   27.1650 C   0  0  0  0  0  0  0  0  0  0  0  0
   53.7940   78.2900   28.0360 N   0  0  0  0  0  0  0  0  0  0  0  0
   54.4010   77.9060   29.1490 C   0  0  0  0  0  0  0  0  0  0  0  0
   55.6810   78.1010   29.4520 N   0  0  0  0  0  0  0  0  0  0  0  0
   56.4010   78.7320   28.5240 C   0  0  0  0  0  0  0  0  0  0  0  0
   57.7300   78.9500   28.8760 N   0  0  0  0  0  0  0  0  0  0  0  0
   58.4080   79.9630   29.5630 C   0  0  0  0  0  0  0  0  0  0  0  0
   59.2860   80.8640   28.9610 C   0  0  0  0  0  0  0  0  0  0  0  0
   59.9250   81.8610   29.7040 C   0  0  0  0  0  0  0  0  0  0  0  0
   59.6920   81.9770   31.0710 C   0  0  0  0  0  0  0  0  0  0  0  0
   58.8160   81.0930   31.7110 C   0  0  0  0  0  0  0  0  0  0  0  0
   58.5630   81.2100   33.1900 C   0  0  0  0  0  0  0  0  0  0  0  0
   59.9910   80.7170   34.1590 S   0  0  2  0  0  6  0  0  0  0  0  0
   60.8540   82.2340   34.5250 C   0  0  0  0  0  0  0  0  0  0  0  0
   60.9210   79.8570   33.2710 N   0  0  0  0  0  0  0  0  0  0  0  0
   59.4770   80.2320   35.4290 O   0  0  0  0  0  0  0  0  0  0  0  0
   58.1740   80.1060   30.9420 C   0  0  0  0  0  0  0  0  0  0  0  0
   55.8990   79.1480   27.3640 N   0  0  0  0  0  0  0  0  0  0  0  0
   54.8022   84.7758   27.1986 H   0  0  0  0  0  0  0  0  0  0  0  0
   55.5406   84.2589   25.6448 H   0  0  0  0  0  0  0  0  0  0  0  0
   54.1603   85.4085   25.6448 H   0  0  0  0  0  0  0  0  0  0  0  0
   53.3320   83.1830   25.1330 H   0  0  0  0  0  0  0  0  0  0  0  0
   52.8147   82.1545   24.2972 H   0  0  0  0  0  0  0  0  0  0  0  0
   52.8868   78.0654   22.9261 H   0  0  0  0  0  0  0  0  0  0  0  0
   53.9698   77.3630   25.0552 H   0  0  0  0  0  0  0  0  0  0  0  0
   53.7883   77.3757   29.8929 H   0  0  0  0  0  0  0  0  0  0  0  0
   58.3030   78.2300   28.4580 H   0  0  0  0  0  0  0  0  0  0  0  0
   59.4794   80.7887   27.8808 H   0  0  0  0  0  0  0  0  0  0  0  0
   60.6154   82.5573   29.2055 H   0  0  0  0  0  0  0  0  0  0  0  0
   60.1971   82.7647   31.6493 H   0  0  0  0  0  0  0  0  0  0  0  0
   58.3176   82.2559   33.4264 H   0  0  0  0  0  0  0  0  0  0  0  0
   57.7309   80.5377   33.4460 H   0  0  0  0  0  0  0  0  0  0  0  0
   60.9262   82.3609   35.6153 H   0  0  0  0  0  0  0  0  0  0  0  0
   61.8647   82.1943   34.0928 H   0  0  0  0  0  0  0  0  0  0  0  0
   60.3034   83.0825   34.0928 H   0  0  0  0  0  0  0  0  0  0  0  0
   61.7430   79.5500   33.7950 H   0  0  0  0  0  0  0  0  0  0  0  0
   57.4659   79.4239   31.4353 H   0  0  0  0  0  0  0  0  0  0  0  0
  1  2  1  0
  2  3  1  0
  3  4  2  0
  3  5  2  0
  3  6  1  0
  6  7  1  0
  7  8  2  0
  8  9  1  0
  8 10  1  0
 10 11  2  0
 11 12  1  0
 12 13  1  0
 13 14  1  0
 14 15  2  0
 15 16  1  0
 16 17  2  0
 17 18  1  0
 18 19  1  0
 19 20  1  0
 20 21  2  0
 21 22  1  0
 22 23  2  0
 23 24  1  0
 25 24  1  6
 25 26  1  0
 25 27  2  0
 25 28  2  0
 23 29  1  0
 17 30  1  0
 12  6  2  0
 30 13  2  0
 29 19  2  0
  1 31  1  0
  1 32  1  0
  1 33  1  0
  2 34  1  0
  7 35  1  0
 10 36  1  0
 11 37  1  0
 15 38  1  0
 18 39  1  0
 20 40  1  0
 21 41  1  0
 22 42  1  0
 24 43  1  0
 24 44  1  0
 26 45  1  0
 26 46  1  0
 26 47  1  0
 27 48  1  0
 29 49  1  0
M  END
>  <meeko>  (1) 
{"is_sidechain": false}

>  <smiles>  (1) 
CNS(=O)(=O)c1cc(F)ccc1-c1ncnc(Nc2cccc(C[S@](C)(=N)=O)c2)n1

>  <vina_score>  (1) 
-8.379

>  <job_id>  (1) 
efc1b854cf04b89a

$$$$
