
     RDKit          3D

 56 59  0  0  0  0  0  0  0  0999 V2000
   62.1670   79.4820   36.5330 C   0  0  0  0  0  0  0  0  0  0  0  0
   63.0600   79.8400   35.3550 C   0  0  0  0  0  0  0  0  0  0  0  0
   62.3110   79.9200   34.0200 C   0  0  0  0  0  0  0  0  0  0  0  0
   60.7920   80.0500   34.1930 C   0  0  0  0  0  0  0  0  0  0  0  0
   60.1900   81.4600   33.9210 C   0  0  0  0  0  0  0  0  0  0  0  0
   58.6490   81.3560   34.0420 C   0  0  0  0  0  0  0  0  0  0  0  0
   60.6320   82.4990   34.9930 C   0  0  0  0  0  0  0  0  0  0  0  0
   61.9110   83.1280   34.7450 N   0  0  0  0  0  0  0  0  0  0  0  0
   62.2600   83.5690   33.4920 C   0  0  0  0  0  0  0  0  0  0  0  0
   63.1450   84.4030   33.3490 O   0  0  0  0  0  0  0  0  0  0  0  0
   61.5260   82.9540   32.4160 C   0  0  0  0  0  0  0  0  0  0  0  0
   61.6250   83.1910   31.0550 C   0  0  0  0  0  0  0  0  0  0  0  0
   60.7690   82.2790   30.3940 C   0  0  0  0  0  0  0  0  0  0  0  0
   60.4340   81.9830   29.0810 C   0  0  0  0  0  0  0  0  0  0  0  0
   59.5620   80.9810   28.8230 N   0  0  0  0  0  0  0  0  0  0  0  0
   59.0440   80.2720   29.8480 C   0  0  0  0  0  0  0  0  0  0  0  0
   58.1630   79.2680   29.4480 N   0  0  0  0  0  0  0  0  0  0  0  0
   57.0520   79.2290   28.6010 C   0  0  0  0  0  0  0  0  0  0  0  0
   55.9840   78.3410   28.7560 C   0  0  0  0  0  0  0  0  0  0  0  0
   54.8770   78.3690   27.8960 C   0  0  0  0  0  0  0  0  0  0  0  0
   54.8210   79.3020   26.8570 C   0  0  0  0  0  0  0  0  0  0  0  0
   53.6680   79.3730   25.9170 C   0  0  0  0  0  0  0  0  0  0  0  0
   52.5220   79.2660   26.3380 O   0  0  0  0  0  0  0  0  0  0  0  0
   53.9750   79.6010   24.5900 N   0  0  0  0  0  0  0  0  0  0  0  0
   52.9250   79.8120   23.6260 C   0  0  0  0  0  0  0  0  0  0  0  0
   55.8630   80.2180   26.7070 C   0  0  0  0  0  0  0  0  0  0  0  0
   56.9640   80.1790   27.5700 C   0  0  0  0  0  0  0  0  0  0  0  0
   59.3060   80.4930   31.1450 N   0  0  0  0  0  0  0  0  0  0  0  0
   60.1590   81.5040   31.3670 C   0  0  0  0  0  0  0  0  0  0  0  0
   60.5830   81.9570   32.5910 N   0  0  0  0  0  0  0  0  0  0  0  0
   62.6973   79.6946   37.4730 H   0  0  0  0  0  0  0  0  0  0  0  0
   61.2447   80.0799   36.4890 H   0  0  0  0  0  0  0  0  0  0  0  0
   61.9131   78.4126   36.4890 H   0  0  0  0  0  0  0  0  0  0  0  0
   63.5224   80.8181   35.5536 H   0  0  0  0  0  0  0  0  0  0  0  0
   63.8055   79.0369   35.2593 H   0  0  0  0  0  0  0  0  0  0  0  0
   62.6770   80.7960   33.4644 H   0  0  0  0  0  0  0  0  0  0  0  0
   62.5019   78.9818   33.4783 H   0  0  0  0  0  0  0  0  0  0  0  0
   60.3131   79.3410   33.5017 H   0  0  0  0  0  0  0  0  0  0  0  0
   60.5970   79.8454   35.2561 H   0  0  0  0  0  0  0  0  0  0  0  0
   58.3651   81.3368   35.1046 H   0  0  0  0  0  0  0  0  0  0  0  0
   58.1834   82.2248   33.5537 H   0  0  0  0  0  0  0  0  0  0  0  0
   58.3043   80.4326   33.5537 H   0  0  0  0  0  0  0  0  0  0  0  0
   59.8670   83.2881   35.0390 H   0  0  0  0  0  0  0  0  0  0  0  0
   60.7416   81.9410   35.9346 H   0  0  0  0  0  0  0  0  0  0  0  0
   62.3590   83.6580   35.4840 H   0  0  0  0  0  0  0  0  0  0  0  0
   62.2565   83.9524   30.5739 H   0  0  0  0  0  0  0  0  0  0  0  0
   60.8746   82.5595   28.2542 H   0  0  0  0  0  0  0  0  0  0  0  0
   58.3340   78.4500   30.0170 H   0  0  0  0  0  0  0  0  0  0  0  0
   56.0125   77.6032   29.5714 H   0  0  0  0  0  0  0  0  0  0  0  0
   54.0518   77.6559   28.0392 H   0  0  0  0  0  0  0  0  0  0  0  0
   54.8970   79.9460   24.3630 H   0  0  0  0  0  0  0  0  0  0  0  0
   51.9776   80.0024   24.1515 H   0  0  0  0  0  0  0  0  0  0  0  0
   53.1749   80.6779   22.9953 H   0  0  0  0  0  0  0  0  0  0  0  0
   52.8210   78.9168   22.9953 H   0  0  0  0  0  0  0  0  0  0  0  0
   55.8188   80.9729   25.9081 H   0  0  0  0  0  0  0  0  0  0  0  0
   57.7775   80.9075   27.4382 H   0  0  0  0  0  0  0  0  0  0  0  0
  1  2  1  0
  2  3  1  0
  3  4  1  0
  4  5  1  0
  5  6  1  0
  5  7  1  0
  7  8  1  0
  8  9  1  0
  9 10  2  0
  9 11  1  0
 11 12  2  0
 12 13  1  0
 13 14  2  0
 14 15  1  0
 15 16  2  0
 16 17  1  0
 17 18  1  0
 18 19  1  0
 19 20  2  0
 20 21  1  0
 21 22  1  0
 22 23  2  0
 22 24  1  0
 24 25  1  0
 21 26  2  0
 26 27  1  0
 16 28  1  0
 28 29  2  0
 29 30  1  0
 30  5  1  0
 30 11  1  0
 29 13  1  0
 27 18  2  0
  1 31  1  0
  1 32  1  0
  1 33  1  0
  2 34  1  0
  2 35  1  0
  3 36  1  0
  3 37  1  0
  4 38  1  0
  4 39  1  0
  6 40  1  0
  6 41  1  0
  6 42  1  0
  7 43  1  0
  7 44  1  0
  8 45  1  0
 12 46  1  0
 14 47  1  0
 17 48  1  0
 19 49  1  0
 20 50  1  0
 24 51  1  0
 25 52  1  0
 25 53  1  0
 25 54  1  0
 26 55  1  0
 27 56  1  0
M  END
>  <meeko>  (1) 
{"is_sidechain": false}

>  <smiles>  (1) 
CCCCC1(C)CNC(=O)c2cc3cnc(Nc4ccc(C(=O)NC)cc4)nc3n21

>  <vina_score>  (1) 
-8.266

>  <job_id>  (1) 
efccaa668543900c

$$$$
