
     RDKit          3D

 41 43  0  0  0  0  0  0  0  0999 V2000
   57.7650   80.2420   28.0280 C   0  0  0  0  0  0  0  0  0  0  0  0
   56.5800   80.2540   27.2320 O   0  0  0  0  0  0  0  0  0  0  0  0
   55.6890   79.3050   27.6720 C   0  0  0  0  0  0  0  0  0  0  0  0
   56.2020   78.1790   28.3290 C   0  0  0  0  0  0  0  0  0  0  0  0
   55.3300   77.2400   28.8580 C   0  0  0  0  0  0  0  0  0  0  0  0
   55.8200   76.1590   29.4800 F   0  0  0  0  0  0  0  0  0  0  0  0
   53.9580   77.4090   28.7620 C   0  0  0  0  0  0  0  0  0  0  0  0
   53.4490   78.5440   28.1250 C   0  0  0  0  0  0  0  0  0  0  0  0
   54.3010   79.5220   27.5630 C   0  0  0  0  0  0  0  0  0  0  0  0
   53.7160   80.7010   26.9010 C   0  0  0  0  0  0  0  0  0  0  0  0
   53.7730   81.8850   27.5330 N   0  0  0  0  0  0  0  0  0  0  0  0
   53.2510   82.9230   26.8690 C   0  0  0  0  0  0  0  0  0  0  0  0
   52.7130   82.8280   25.6060 C   0  0  0  0  0  0  0  0  0  0  0  0
   52.7230   81.5840   25.0000 C   0  0  0  0  0  0  0  0  0  0  0  0
   52.1980   81.3960   23.7200 N   0  0  0  0  0  0  0  0  0  0  0  0
   53.1140   81.1110   22.6190 C   0  0  0  0  0  0  0  0  0  0  0  0
   52.7630   81.7520   21.2730 C   0  0  0  0  0  0  0  0  0  0  0  0
   51.6580   82.8040   21.3710 C   0  0  0  0  0  0  0  0  0  0  0  0
   50.3120   82.2490   21.4860 N   0  0  0  0  0  0  0  0  0  0  0  0
   50.2710   80.9560   22.1880 C   0  0  0  0  0  0  0  0  0  0  0  0
   50.7880   80.9960   23.6370 C   0  0  0  0  0  0  0  0  0  0  0  0
   53.2280   80.5220   25.6560 N   0  0  0  0  0  0  0  0  0  0  0  0
   57.4911   80.2448   29.0934 H   0  0  0  0  0  0  0  0  0  0  0  0
   58.3494   79.3379   27.8020 H   0  0  0  0  0  0  0  0  0  0  0  0
   58.3676   81.1341   27.8020 H   0  0  0  0  0  0  0  0  0  0  0  0
   57.2891   78.0409   28.4245 H   0  0  0  0  0  0  0  0  0  0  0  0
   53.2755   76.6563   29.1835 H   0  0  0  0  0  0  0  0  0  0  0  0
   52.3594   78.6796   28.0594 H   0  0  0  0  0  0  0  0  0  0  0  0
   53.2520   83.9072   27.3603 H   0  0  0  0  0  0  0  0  0  0  0  0
   52.2911   83.7074   25.0975 H   0  0  0  0  0  0  0  0  0  0  0  0
   54.1130   81.4667   22.9112 H   0  0  0  0  0  0  0  0  0  0  0  0
   53.0540   80.0248   22.4558 H   0  0  0  0  0  0  0  0  0  0  0  0
   53.6666   82.2321   20.8693 H   0  0  0  0  0  0  0  0  0  0  0  0
   52.3905   80.9500   20.6188 H   0  0  0  0  0  0  0  0  0  0  0  0
   51.8516   83.4262   22.2573 H   0  0  0  0  0  0  0  0  0  0  0  0
   51.6842   83.3784   20.4333 H   0  0  0  0  0  0  0  0  0  0  0  0
   49.9320   82.1120   20.5490 H   0  0  0  0  0  0  0  0  0  0  0  0
   49.2275   80.6083   22.2057 H   0  0  0  0  0  0  0  0  0  0  0  0
   50.9420   80.2809   21.6366 H   0  0  0  0  0  0  0  0  0  0  0  0
   50.1829   81.7159   24.2077 H   0  0  0  0  0  0  0  0  0  0  0  0
   50.7040   79.9799   24.0500 H   0  0  0  0  0  0  0  0  0  0  0  0
  1  2  1  0
  2  3  1  0
  3  4  1  0
  4  5  2  0
  5  6  1  0
  5  7  1  0
  7  8  2  0
  8  9  1  0
  9 10  1  0
 10 11  2  0
 11 12  1  0
 12 13  2  0
 13 14  1  0
 14 15  1  0
 15 16  1  0
 16 17  1  0
 17 18  1  0
 18 19  1  0
 19 20  1  0
 20 21  1  0
 14 22  2  0
  9  3  2  0
 22 10  1  0
 21 15  1  0
  1 23  1  0
  1 24  1  0
  1 25  1  0
  4 26  1  0
  7 27  1  0
  8 28  1  0
 12 29  1  0
 13 30  1  0
 16 31  1  0
 16 32  1  0
 17 33  1  0
 17 34  1  0
 18 35  1  0
 18 36  1  0
 19 37  1  0
 20 38  1  0
 20 39  1  0
 21 40  1  0
 21 41  1  0
M  END
>  <meeko>  (1) 
{"is_sidechain": false}

>  <smiles>  (1) 
COc1cc(F)ccc1-c1nccc(N2CCCNCC2)n1

>  <vina_score>  (1) 
-5.445

>  <job_id>  (1) 
eff41c94ec3467fa

$$$$
