
     RDKit          3D

 44 46  0  0  0  0  0  0  0  0999 V2000
   60.1270   84.9590   33.4040 C   0  0  0  0  0  0  0  0  0  0  0  0
   61.1550   83.9850   33.0450 N   0  0  0  0  0  0  0  0  0  0  0  0
   61.4940   84.0530   31.6070 C   0  0  0  0  0  0  0  0  0  0  0  0
   60.6360   83.1710   30.6650 C   0  0  0  0  0  0  0  0  0  0  0  0
   60.5460   81.7640   31.1320 N   0  0  0  0  0  0  0  0  0  0  0  0
   59.4640   81.0180   30.6570 C   0  0  0  0  0  0  0  0  0  0  0  0
   58.5440   80.3900   31.5090 C   0  0  0  0  0  0  0  0  0  0  0  0
   57.4640   79.6320   31.0200 C   0  0  0  0  0  0  0  0  0  0  0  0
   57.2560   79.4570   29.6470 C   0  0  0  0  0  0  0  0  0  0  0  0
   56.1290   78.6610   29.1370 C   0  0  0  0  0  0  0  0  0  0  0  0
   55.3010   79.1540   28.1120 C   0  0  0  0  0  0  0  0  0  0  0  0
   54.2270   78.4030   27.6260 C   0  0  0  0  0  0  0  0  0  0  0  0
   53.9760   77.1390   28.1630 C   0  0  0  0  0  0  0  0  0  0  0  0
   52.6080   76.1930   27.5490 S   0  0  0  0  0  0  0  0  0  0  0  0
   53.1010   74.6230   27.9020 N   0  0  0  0  0  0  0  0  0  0  0  0
   51.4620   76.4390   28.3950 O   0  0  0  0  0  0  0  0  0  0  0  0
   52.5600   76.3350   26.1140 O   0  0  0  0  0  0  0  0  0  0  0  0
   54.7710   76.6300   29.1890 C   0  0  0  0  0  0  0  0  0  0  0  0
   55.8440   77.3900   29.6670 C   0  0  0  0  0  0  0  0  0  0  0  0
   58.1640   80.0700   28.7800 C   0  0  0  0  0  0  0  0  0  0  0  0
   59.2320   80.8250   29.2760 C   0  0  0  0  0  0  0  0  0  0  0  0
   60.0600   81.3600   28.3640 F   0  0  0  0  0  0  0  0  0  0  0  0
   61.1700   81.5200   32.4450 C   0  0  0  0  0  0  0  0  0  0  0  0
   60.7410   82.6170   33.4410 C   0  0  0  0  0  0  0  0  0  0  0  0
   60.0540   85.0282   34.4994 H   0  0  0  0  0  0  0  0  0  0  0  0
   60.3942   85.9431   32.9915 H   0  0  0  0  0  0  0  0  0  0  0  0
   59.1588   84.6391   32.9915 H   0  0  0  0  0  0  0  0  0  0  0  0
   61.3822   85.0985   31.2838 H   0  0  0  0  0  0  0  0  0  0  0  0
   62.5197   83.6642   31.5251 H   0  0  0  0  0  0  0  0  0  0  0  0
   59.6210   83.5919   30.6144 H   0  0  0  0  0  0  0  0  0  0  0  0
   61.1203   83.1660   29.6773 H   0  0  0  0  0  0  0  0  0  0  0  0
   58.6710   80.4935   32.5967 H   0  0  0  0  0  0  0  0  0  0  0  0
   56.7675   79.1665   31.7329 H   0  0  0  0  0  0  0  0  0  0  0  0
   55.5023   80.1478   27.6856 H   0  0  0  0  0  0  0  0  0  0  0  0
   53.5854   78.8042   26.8277 H   0  0  0  0  0  0  0  0  0  0  0  0
   52.5540   73.9700   27.3370 H   0  0  0  0  0  0  0  0  0  0  0  0
   53.0550   74.3980   28.8950 H   0  0  0  0  0  0  0  0  0  0  0  0
   54.5567   75.6403   29.6186 H   0  0  0  0  0  0  0  0  0  0  0  0
   56.4759   76.9862   30.4717 H   0  0  0  0  0  0  0  0  0  0  0  0
   58.0374   79.9574   27.6931 H   0  0  0  0  0  0  0  0  0  0  0  0
   60.8507   80.5379   32.8239 H   0  0  0  0  0  0  0  0  0  0  0  0
   62.2644   81.5378   32.3353 H   0  0  0  0  0  0  0  0  0  0  0  0
   59.6444   82.5981   33.5256 H   0  0  0  0  0  0  0  0  0  0  0  0
   61.2426   82.3956   34.3946 H   0  0  0  0  0  0  0  0  0  0  0  0
  1  2  1  0
  2  3  1  0
  3  4  1  0
  4  5  1  0
  5  6  1  0
  6  7  1  0
  7  8  2  0
  8  9  1  0
  9 10  1  0
 10 11  1  0
 11 12  2  0
 12 13  1  0
 13 14  1  0
 14 15  1  0
 14 16  2  0
 14 17  2  0
 13 18  2  0
 18 19  1  0
  9 20  2  0
 20 21  1  0
 21 22  1  0
  5 23  1  0
 23 24  1  0
 24  2  1  0
 21  6  2  0
 19 10  2  0
  1 25  1  0
  1 26  1  0
  1 27  1  0
  3 28  1  0
  3 29  1  0
  4 30  1  0
  4 31  1  0
  7 32  1  0
  8 33  1  0
 11 34  1  0
 12 35  1  0
 15 36  1  0
 15 37  1  0
 18 38  1  0
 19 39  1  0
 20 40  1  0
 23 41  1  0
 23 42  1  0
 24 43  1  0
 24 44  1  0
M  END
>  <meeko>  (1) 
{"is_sidechain": false}

>  <smiles>  (1) 
CN1CCN(c2ccc(-c3ccc(S(N)(=O)=O)cc3)cc2F)CC1

>  <vina_score>  (1) 
-7.668

>  <job_id>  (1) 
f01a9c0258202f66

$$$$
