
     RDKit          3D

 52 55  0  0  0  0  0  0  0  0999 V2000
   52.6080   81.3570   22.7640 C   0  0  0  0  0  0  0  0  0  0  0  0
   52.3240   81.5460   24.1440 O   0  0  0  0  0  0  0  0  0  0  0  0
   52.9180   80.6940   25.0370 C   0  0  0  0  0  0  0  0  0  0  0  0
   53.2450   79.3640   24.7660 C   0  0  0  0  0  0  0  0  0  0  0  0
   53.8550   78.5660   25.7450 C   0  0  0  0  0  0  0  0  0  0  0  0
   54.1450   79.0730   27.0160 C   0  0  0  0  0  0  0  0  0  0  0  0
   54.7840   78.2540   28.0370 C   0  0  0  0  0  0  0  0  0  0  0  0
   54.0840   77.1250   28.3950 O   0  0  0  0  0  0  0  0  0  0  0  0
   54.8370   76.5390   29.3600 C   0  0  0  0  0  0  0  0  0  0  0  0
   55.9510   77.1660   29.6560 N   0  0  0  0  0  0  0  0  0  0  0  0
   55.9380   78.2740   28.8030 C   0  0  0  0  0  0  0  0  0  0  0  0
   57.0410   79.2360   28.7860 C   0  0  0  0  0  0  0  0  0  0  0  0
   57.4390   79.7600   27.7550 O   0  0  0  0  0  0  0  0  0  0  0  0
   57.5270   79.4290   30.0620 N   0  0  0  0  0  0  0  0  0  0  0  0
   58.5630   80.2870   30.4310 C   0  0  0  0  0  0  0  0  0  0  0  0
   58.7350   80.5310   31.7820 C   0  0  0  0  0  0  0  0  0  0  0  0
   59.7620   81.3830   32.1770 C   0  0  0  0  0  0  0  0  0  0  0  0
   59.9420   81.5710   33.4950 F   0  0  0  0  0  0  0  0  0  0  0  0
   60.6090   82.0000   31.2520 C   0  0  0  0  0  0  0  0  0  0  0  0
   61.6840   82.8580   31.5730 N   0  0  0  0  0  0  0  0  0  0  0  0
   62.9930   82.4740   31.0220 C   0  0  0  0  0  0  0  0  0  0  0  0
   64.1080   82.9640   31.9550 C   0  0  0  0  0  0  0  0  0  0  0  0
   63.6080   83.7920   33.1340 C   0  0  0  0  0  0  0  0  0  0  0  0
   63.2070   85.1570   32.7930 N   0  0  0  0  0  0  0  0  0  0  0  0
   61.7730   85.2360   32.4910 C   0  0  0  0  0  0  0  0  0  0  0  0
   61.2700   84.2720   31.3940 C   0  0  0  0  0  0  0  0  0  0  0  0
   60.3410   81.6760   29.9240 C   0  0  0  0  0  0  0  0  0  0  0  0
   59.3540   80.8470   29.5050 N   0  0  0  0  0  0  0  0  0  0  0  0
   53.8250   80.4110   27.2810 C   0  0  0  0  0  0  0  0  0  0  0  0
   53.2200   81.2100   26.3050 C   0  0  0  0  0  0  0  0  0  0  0  0
   52.8550   82.8520   26.7210 Cl  0  0  0  0  0  0  0  0  0  0  0  0
   53.5194   80.7505   22.6569 H   0  0  0  0  0  0  0  0  0  0  0  0
   51.7646   80.8394   22.2836 H   0  0  0  0  0  0  0  0  0  0  0  0
   52.7598   82.3349   22.2836 H   0  0  0  0  0  0  0  0  0  0  0  0
   53.0224   78.9384   23.7764 H   0  0  0  0  0  0  0  0  0  0  0  0
   54.1100   77.5223   25.5089 H   0  0  0  0  0  0  0  0  0  0  0  0
   54.5353   75.6058   29.8581 H   0  0  0  0  0  0  0  0  0  0  0  0
   57.0720   78.8770   30.7810 H   0  0  0  0  0  0  0  0  0  0  0  0
   58.0751   80.0623   32.5268 H   0  0  0  0  0  0  0  0  0  0  0  0
   63.0455   81.3789   30.9324 H   0  0  0  0  0  0  0  0  0  0  0  0
   63.1199   82.9312   30.0296 H   0  0  0  0  0  0  0  0  0  0  0  0
   64.6403   82.0859   32.3495 H   0  0  0  0  0  0  0  0  0  0  0  0
   64.7589   83.6195   31.3578 H   0  0  0  0  0  0  0  0  0  0  0  0
   62.7389   83.2779   33.5702 H   0  0  0  0  0  0  0  0  0  0  0  0
   64.4526   83.8806   33.8332 H   0  0  0  0  0  0  0  0  0  0  0  0
   63.4000   85.7610   33.5940 H   0  0  0  0  0  0  0  0  0  0  0  0
   61.2194   85.0156   33.4156 H   0  0  0  0  0  0  0  0  0  0  0  0
   61.6018   86.2508   32.1027 H   0  0  0  0  0  0  0  0  0  0  0  0
   60.1707   84.3084   31.3838 H   0  0  0  0  0  0  0  0  0  0  0  0
   61.7233   84.6112   30.4509 H   0  0  0  0  0  0  0  0  0  0  0  0
   60.9819   82.1294   29.1535 H   0  0  0  0  0  0  0  0  0  0  0  0
   54.0523   80.8385   28.2687 H   0  0  0  0  0  0  0  0  0  0  0  0
  1  2  1  0
  2  3  1  0
  3  4  1  0
  4  5  2  0
  5  6  1  0
  6  7  1  0
  7  8  1  0
  8  9  1  0
  9 10  2  0
 10 11  1  0
 11 12  1  0
 12 13  2  0
 12 14  1  0
 14 15  1  0
 15 16  2  0
 16 17  1  0
 17 18  1  0
 17 19  2  0
 19 20  1  0
 20 21  1  0
 21 22  1  0
 22 23  1  0
 23 24  1  0
 24 25  1  0
 25 26  1  0
 19 27  1  0
 27 28  2  0
  6 29  2  0
 29 30  1  0
 30 31  1  0
 30  3  2  0
 11  7  2  0
 28 15  1  0
 26 20  1  0
  1 32  1  0
  1 33  1  0
  1 34  1  0
  4 35  1  0
  5 36  1  0
  9 37  1  0
 14 38  1  0
 16 39  1  0
 21 40  1  0
 21 41  1  0
 22 42  1  0
 22 43  1  0
 23 44  1  0
 23 45  1  0
 24 46  1  0
 25 47  1  0
 25 48  1  0
 26 49  1  0
 26 50  1  0
 27 51  1  0
 29 52  1  0
M  END
>  <meeko>  (1) 
{"is_sidechain": false}

>  <smiles>  (1) 
COc1ccc(-c2ocnc2C(=O)Nc2cc(F)c(N3CCCNCC3)cn2)cc1Cl

>  <vina_score>  (1) 
-7.185

>  <job_id>  (1) 
f0ae797f4290908d

$$$$
