
     RDKit          3D

 45 47  0  0  0  0  0  0  0  0999 V2000
   50.6790   81.0450   22.6580 C   0  0  0  0  0  0  0  0  0  0  0  0
   52.2110   81.0640   22.6430 C   0  0  0  0  0  0  0  0  0  0  0  0
   52.6990   81.7400   21.3630 C   0  0  0  0  0  0  0  0  0  0  0  0
   52.7510   81.7980   23.8740 C   0  0  0  0  0  0  0  0  0  0  0  0
   52.5700   83.0130   23.9960 O   0  0  0  0  0  0  0  0  0  0  0  0
   53.4640   81.0800   24.8350 N   0  0  0  0  0  0  0  0  0  0  0  0
   53.4110   79.6270   25.0330 C   0  0  0  0  0  0  0  0  0  0  0  0
   53.4870   79.2140   26.5190 C   0  0  0  0  0  0  0  0  0  0  0  0
   54.8220   79.2980   27.2040 C   0  0  0  0  0  0  0  0  0  0  0  0
   55.0870   78.4320   28.2480 C   0  0  0  0  0  0  0  0  0  0  0  0
   56.2390   78.3930   28.9390 N   0  0  0  0  0  0  0  0  0  0  0  0
   57.1940   79.2520   28.5770 C   0  0  0  0  0  0  0  0  0  0  0  0
   58.4250   79.3140   29.2190 N   0  0  0  0  0  0  0  0  0  0  0  0
   59.0310   80.2330   30.0820 C   0  0  0  0  0  0  0  0  0  0  0  0
   59.8010   81.2690   29.5270 C   0  0  0  0  0  0  0  0  0  0  0  0
   60.4310   82.2230   30.3330 C   0  0  0  0  0  0  0  0  0  0  0  0
   60.3020   82.1580   31.7150 C   0  0  0  0  0  0  0  0  0  0  0  0
   59.5430   81.1410   32.2870 C   0  0  0  0  0  0  0  0  0  0  0  0
   58.9140   80.1890   31.4750 C   0  0  0  0  0  0  0  0  0  0  0  0
   57.0390   80.1230   27.5650 N   0  0  0  0  0  0  0  0  0  0  0  0
   55.8710   80.1380   26.8760 C   0  0  0  0  0  0  0  0  0  0  0  0
   55.8230   81.1570   25.7680 C   0  0  0  0  0  0  0  0  0  0  0  0
   54.4690   81.8390   25.5910 C   0  0  0  0  0  0  0  0  0  0  0  0
   50.3225   81.0406   23.6986 H   0  0  0  0  0  0  0  0  0  0  0  0
   50.2962   81.9385   22.1431 H   0  0  0  0  0  0  0  0  0  0  0  0
   50.3184   80.1423   22.1431 H   0  0  0  0  0  0  0  0  0  0  0  0
   52.5839   80.0295   22.6707 H   0  0  0  0  0  0  0  0  0  0  0  0
   53.3248   82.6068   21.6218 H   0  0  0  0  0  0  0  0  0  0  0  0
   53.2900   81.0243   20.7727 H   0  0  0  0  0  0  0  0  0  0  0  0
   51.8336   82.0757   20.7727 H   0  0  0  0  0  0  0  0  0  0  0  0
   52.4664   79.2509   24.6132 H   0  0  0  0  0  0  0  0  0  0  0  0
   54.2876   79.1954   24.5278 H   0  0  0  0  0  0  0  0  0  0  0  0
   52.7922   79.8607   27.0748 H   0  0  0  0  0  0  0  0  0  0  0  0
   53.2428   78.1414   26.5204 H   0  0  0  0  0  0  0  0  0  0  0  0
   54.2968   77.7224   28.5344 H   0  0  0  0  0  0  0  0  0  0  0  0
   58.9520   78.4850   28.9890 H   0  0  0  0  0  0  0  0  0  0  0  0
   59.9108   81.3312   28.4343 H   0  0  0  0  0  0  0  0  0  0  0  0
   61.0282   83.0242   29.8731 H   0  0  0  0  0  0  0  0  0  0  0  0
   60.7965   82.9054   32.3529 H   0  0  0  0  0  0  0  0  0  0  0  0
   59.4369   81.0849   33.3804 H   0  0  0  0  0  0  0  0  0  0  0  0
   58.3168   79.3917   31.9415 H   0  0  0  0  0  0  0  0  0  0  0  0
   56.5727   81.9329   25.9825 H   0  0  0  0  0  0  0  0  0  0  0  0
   56.0222   80.6116   24.8337 H   0  0  0  0  0  0  0  0  0  0  0  0
   54.0584   82.0386   26.5918 H   0  0  0  0  0  0  0  0  0  0  0  0
   54.6663   82.7449   24.9990 H   0  0  0  0  0  0  0  0  0  0  0  0
  1  2  1  0
  2  3  1  0
  2  4  1  0
  4  5  2  0
  4  6  1  0
  6  7  1  0
  7  8  1  0
  8  9  1  0
  9 10  2  0
 10 11  1  0
 11 12  2  0
 12 13  1  0
 13 14  1  0
 14 15  2  0
 15 16  1  0
 16 17  2  0
 17 18  1  0
 18 19  2  0
 12 20  1  0
 20 21  2  0
 21 22  1  0
 22 23  1  0
 23  6  1  0
 21  9  1  0
 19 14  1  0
  1 24  1  0
  1 25  1  0
  1 26  1  0
  2 27  1  0
  3 28  1  0
  3 29  1  0
  3 30  1  0
  7 31  1  0
  7 32  1  0
  8 33  1  0
  8 34  1  0
 10 35  1  0
 13 36  1  0
 15 37  1  0
 16 38  1  0
 17 39  1  0
 18 40  1  0
 19 41  1  0
 22 42  1  0
 22 43  1  0
 23 44  1  0
 23 45  1  0
M  END
>  <meeko>  (1) 
{"is_sidechain": false}

>  <smiles>  (1) 
CC(C)C(=O)N1CCc2cnc(Nc3ccccc3)nc2CC1

>  <vina_score>  (1) 
-6.657

>  <job_id>  (1) 
f0bbb236e71bcc4c

$$$$
