
     RDKit          3D

 42 44  0  0  0  0  0  0  0  0999 V2000
   53.0210   78.6680   27.3650 O   0  0  0  0  0  0  0  0  0  0  0  0
   53.8690   79.3180   26.7690 C   0  0  0  0  0  0  0  0  0  0  0  0
   55.2250   79.2510   26.9870 N   0  0  0  0  0  0  0  0  0  0  0  0
   55.7820   78.4670   28.0650 C   0  0  0  0  0  0  0  0  0  0  0  0
   56.8600   79.2420   28.7750 C   0  0  0  0  0  0  0  0  0  0  0  0
   57.0330   79.1090   30.1540 C   0  0  0  0  0  0  0  0  0  0  0  0
   58.0180   79.8470   30.8250 C   0  0  0  0  0  0  0  0  0  0  0  0
   58.8640   80.7440   30.1550 C   0  0  0  0  0  0  0  0  0  0  0  0
   59.8350   81.4680   30.8220 N   0  0  0  0  0  0  0  0  0  0  0  0
   59.9620   81.4410   32.2880 C   0  0  0  0  0  0  0  0  0  0  0  0
   61.4160   81.7310   32.6990 C   0  0  0  0  0  0  0  0  0  0  0  0
   61.9120   82.9990   32.2440 O   0  0  0  0  0  0  0  0  0  0  0  0
   61.2940   83.4460   31.0310 C   0  0  0  0  0  0  0  0  0  0  0  0
   60.8140   82.3090   30.1130 C   0  0  0  0  0  0  0  0  0  0  0  0
   58.6680   80.8640   28.7700 C   0  0  0  0  0  0  0  0  0  0  0  0
   57.6850   80.1330   28.0880 C   0  0  0  0  0  0  0  0  0  0  0  0
   53.4550   80.2770   25.7350 C   0  0  0  0  0  0  0  0  0  0  0  0
   53.3300   79.8690   24.4020 C   0  0  0  0  0  0  0  0  0  0  0  0
   53.6770   78.2560   23.8880 Cl  0  0  0  0  0  0  0  0  0  0  0  0
   52.9130   80.7830   23.4280 C   0  0  0  0  0  0  0  0  0  0  0  0
   52.6170   82.1000   23.7830 C   0  0  0  0  0  0  0  0  0  0  0  0
   52.7400   82.5060   25.1120 C   0  0  0  0  0  0  0  0  0  0  0  0
   53.1560   81.5980   26.0900 C   0  0  0  0  0  0  0  0  0  0  0  0
   53.3110   82.1830   27.7090 Cl  0  0  0  0  0  0  0  0  0  0  0  0
   55.8430   79.8980   26.5170 H   0  0  0  0  0  0  0  0  0  0  0  0
   54.9848   78.2164   28.7803 H   0  0  0  0  0  0  0  0  0  0  0  0
   56.2190   77.5474   27.6486 H   0  0  0  0  0  0  0  0  0  0  0  0
   56.3901   78.4184   30.7195 H   0  0  0  0  0  0  0  0  0  0  0  0
   58.1314   79.7189   31.9116 H   0  0  0  0  0  0  0  0  0  0  0  0
   59.3015   82.2048   32.7244 H   0  0  0  0  0  0  0  0  0  0  0  0
   59.6763   80.4443   32.6555 H   0  0  0  0  0  0  0  0  0  0  0  0
   61.4751   81.7109   33.7972 H   0  0  0  0  0  0  0  0  0  0  0  0
   62.0395   80.9582   32.2257 H   0  0  0  0  0  0  0  0  0  0  0  0
   60.4251   84.0668   31.2947 H   0  0  0  0  0  0  0  0  0  0  0  0
   62.0605   84.0023   30.4716 H   0  0  0  0  0  0  0  0  0  0  0  0
   60.3433   82.7388   29.2165 H   0  0  0  0  0  0  0  0  0  0  0  0
   61.6766   81.6915   29.8221 H   0  0  0  0  0  0  0  0  0  0  0  0
   59.3072   81.5548   28.2007 H   0  0  0  0  0  0  0  0  0  0  0  0
   57.5633   80.2630   27.0025 H   0  0  0  0  0  0  0  0  0  0  0  0
   52.8182   80.4628   22.3799 H   0  0  0  0  0  0  0  0  0  0  0  0
   52.2873   82.8165   23.0162 H   0  0  0  0  0  0  0  0  0  0  0  0
   52.5088   83.5445   25.3913 H   0  0  0  0  0  0  0  0  0  0  0  0
  1  2  2  0
  2  3  1  0
  3  4  1  0
  4  5  1  0
  5  6  1  0
  6  7  2  0
  7  8  1  0
  8  9  1  0
  9 10  1  0
 10 11  1  0
 11 12  1  0
 12 13  1  0
 13 14  1  0
  8 15  2  0
 15 16  1  0
  2 17  1  0
 17 18  2  0
 18 19  1  0
 18 20  1  0
 20 21  2  0
 21 22  1  0
 22 23  2  0
 23 24  1  0
 16  5  2  0
 23 17  1  0
 14  9  1  0
  3 25  1  0
  4 26  1  0
  4 27  1  0
  6 28  1  0
  7 29  1  0
 10 30  1  0
 10 31  1  0
 11 32  1  0
 11 33  1  0
 13 34  1  0
 13 35  1  0
 14 36  1  0
 14 37  1  0
 15 38  1  0
 16 39  1  0
 20 40  1  0
 21 41  1  0
 22 42  1  0
M  END
>  <meeko>  (1) 
{"is_sidechain": false}

>  <smiles>  (1) 
O=C(NCc1ccc(N2CCOCC2)cc1)c1c(Cl)cccc1Cl

>  <vina_score>  (1) 
-7.594

>  <job_id>  (1) 
f0f65c2bc1cd0717

$$$$
