
     RDKit          3D

 49 51  0  0  0  0  0  0  0  0999 V2000
   52.9260   81.3890   24.0810 C   0  0  0  0  0  0  0  0  0  0  0  0
   53.2190   80.1490   24.8440 C   0  0  0  0  0  0  0  0  0  0  0  0
   52.9350   78.9440   24.3960 N   0  0  0  0  0  0  0  0  0  0  0  0
   53.3700   78.0730   25.3500 C   0  0  0  0  0  0  0  0  0  0  0  0
   53.9080   78.7380   26.4310 C   0  0  0  0  0  0  0  0  0  0  0  0
   54.4660   78.1770   27.6510 C   0  0  0  0  0  0  0  0  0  0  0  0
   55.5570   78.8340   28.1050 N   0  0  0  0  0  0  0  0  0  0  0  0
   56.1270   78.3550   29.2210 C   0  0  0  0  0  0  0  0  0  0  0  0
   57.2330   79.0650   29.6420 N   0  0  0  0  0  0  0  0  0  0  0  0
   58.2360   79.5800   28.8610 C   0  0  0  0  0  0  0  0  0  0  0  0
   58.3560   79.4740   27.6440 O   0  0  0  0  0  0  0  0  0  0  0  0
   59.3080   80.3020   29.6910 C   0  0  0  0  0  0  0  0  0  0  0  0
   58.7070   81.0560   30.8220 N   0  0  0  0  0  0  0  0  0  0  0  0
   59.3130   80.6070   32.0990 C   0  0  0  0  0  0  0  0  0  0  0  0
   59.1940   81.6740   33.1950 C   0  0  0  0  0  0  0  0  0  0  0  0
   59.9250   82.8670   32.8840 O   0  0  0  0  0  0  0  0  0  0  0  0
   60.0510   83.1020   31.4750 C   0  0  0  0  0  0  0  0  0  0  0  0
   58.8830   82.5230   30.6610 C   0  0  0  0  0  0  0  0  0  0  0  0
   55.6820   77.2860   29.8940 N   0  0  0  0  0  0  0  0  0  0  0  0
   54.5970   76.6550   29.4000 C   0  0  0  0  0  0  0  0  0  0  0  0
   53.9440   77.0630   28.2680 C   0  0  0  0  0  0  0  0  0  0  0  0
   52.8680   76.4110   27.8120 F   0  0  0  0  0  0  0  0  0  0  0  0
   53.8380   80.0810   26.0820 N   0  0  0  0  0  0  0  0  0  0  0  0
   54.3780   81.1860   26.8760 C   0  0  0  0  0  0  0  0  0  0  0  0
   55.6020   81.8550   26.2490 C   0  0  0  0  0  0  0  0  0  0  0  0
   53.3100   82.2050   27.2700 C   0  0  0  0  0  0  0  0  0  0  0  0
   52.7311   82.2137   24.7824 H   0  0  0  0  0  0  0  0  0  0  0  0
   53.7890   81.6424   23.4477 H   0  0  0  0  0  0  0  0  0  0  0  0
   52.0408   81.2293   23.4477 H   0  0  0  0  0  0  0  0  0  0  0  0
   53.3005   76.9783   25.2677 H   0  0  0  0  0  0  0  0  0  0  0  0
   57.2600   79.2830   30.6300 H   0  0  0  0  0  0  0  0  0  0  0  0
   60.0111   79.5571   30.0919 H   0  0  0  0  0  0  0  0  0  0  0  0
   59.8262   81.0181   29.0363 H   0  0  0  0  0  0  0  0  0  0  0  0
   58.7997   79.6938   32.4345 H   0  0  0  0  0  0  0  0  0  0  0  0
   60.3821   80.4185   31.9213 H   0  0  0  0  0  0  0  0  0  0  0  0
   58.1325   81.9337   33.3201 H   0  0  0  0  0  0  0  0  0  0  0  0
   59.6200   81.2530   34.1177 H   0  0  0  0  0  0  0  0  0  0  0  0
   60.0932   84.1877   31.3034 H   0  0  0  0  0  0  0  0  0  0  0  0
   60.9681   82.5963   31.1386 H   0  0  0  0  0  0  0  0  0  0  0  0
   57.9562   83.0206   30.9826 H   0  0  0  0  0  0  0  0  0  0  0  0
   59.1122   82.7031   29.6003 H   0  0  0  0  0  0  0  0  0  0  0  0
   54.2186   75.7699   29.9324 H   0  0  0  0  0  0  0  0  0  0  0  0
   54.7359   80.7183   27.8051 H   0  0  0  0  0  0  0  0  0  0  0  0
   56.2686   82.2193   27.0446 H   0  0  0  0  0  0  0  0  0  0  0  0
   56.1397   81.1253   25.6257 H   0  0  0  0  0  0  0  0  0  0  0  0
   55.2782   82.7015   25.6257 H   0  0  0  0  0  0  0  0  0  0  0  0
   53.2472   82.2649   28.3666 H   0  0  0  0  0  0  0  0  0  0  0  0
   53.5769   83.1917   26.8636 H   0  0  0  0  0  0  0  0  0  0  0  0
   52.3369   81.8921   26.8636 H   0  0  0  0  0  0  0  0  0  0  0  0
  1  2  1  0
  2  3  2  0
  3  4  1  0
  4  5  2  0
  5  6  1  0
  6  7  2  0
  7  8  1  0
  8  9  1  0
  9 10  1  0
 10 11  2  0
 10 12  1  0
 12 13  1  0
 13 14  1  0
 14 15  1  0
 15 16  1  0
 16 17  1  0
 17 18  1  0
  8 19  2  0
 19 20  1  0
 20 21  2  0
 21 22  1  0
  5 23  1  0
 23 24  1  0
 24 25  1  0
 24 26  1  0
 23  2  1  0
 21  6  1  0
 18 13  1  0
  1 27  1  0
  1 28  1  0
  1 29  1  0
  4 30  1  0
  9 31  1  0
 12 32  1  0
 12 33  1  0
 14 34  1  0
 14 35  1  0
 15 36  1  0
 15 37  1  0
 17 38  1  0
 17 39  1  0
 18 40  1  0
 18 41  1  0
 20 42  1  0
 24 43  1  0
 25 44  1  0
 25 45  1  0
 25 46  1  0
 26 47  1  0
 26 48  1  0
 26 49  1  0
M  END
>  <meeko>  (1) 
{"is_sidechain": false}

>  <smiles>  (1) 
Cc1ncc(-c2nc(NC(=O)CN3CCOCC3)ncc2F)n1C(C)C

>  <vina_score>  (1) 
-8.317

>  <job_id>  (1) 
f16b0e3256f93920

$$$$
