
     RDKit          3D

 69 72  0  0  0  0  0  0  0  0999 V2000
   63.6010   88.1840   28.2560 C   0  0  0  0  0  0  0  0  0  0  0  0
   64.5570   87.1790   27.6570 C   0  0  0  0  0  0  0  0  0  0  0  0
   64.7350   87.3570   26.1690 C   0  0  0  0  0  0  0  0  0  0  0  0
   65.1870   86.2140   28.3640 C   0  0  0  0  0  0  0  0  0  0  0  0
   66.0640   85.1320   27.8050 C   0  0  0  0  0  0  0  0  0  0  0  0
   64.9770   86.1080   29.8390 C   0  0  0  0  0  0  0  0  0  0  0  0
   65.7260   86.6980   30.6110 O   0  0  0  0  0  0  0  0  0  0  0  0
   63.8260   85.3030   30.3420 C   0  0  0  0  0  0  0  0  0  0  0  0
   63.7980   83.9030   30.2880 C   0  0  0  0  0  0  0  0  0  0  0  0
   62.6890   83.2030   30.7740 C   0  0  0  0  0  0  0  0  0  0  0  0
   61.5940   83.8970   31.3040 C   0  0  0  0  0  0  0  0  0  0  0  0
   60.4490   83.1150   31.8270 C   0  0  0  0  0  0  0  0  0  0  0  0
   60.0060   83.3870   32.9430 O   0  0  0  0  0  0  0  0  0  0  0  0
   59.8040   82.0280   31.0480 C   0  0  0  0  0  0  0  0  0  0  0  0
   59.6910   82.0900   29.6560 C   0  0  0  0  0  0  0  0  0  0  0  0
   59.0680   81.0500   28.9560 C   0  0  0  0  0  0  0  0  0  0  0  0
   58.5550   79.9180   29.6160 C   0  0  0  0  0  0  0  0  0  0  0  0
   57.9400   78.9250   28.8470 N   0  0  0  0  0  0  0  0  0  0  0  0
   56.6290   78.4760   28.7140 C   0  0  0  0  0  0  0  0  0  0  0  0
   56.0800   77.6120   29.5800 N   0  0  0  0  0  0  0  0  0  0  0  0
   54.8080   77.2230   29.3520 C   0  0  0  0  0  0  0  0  0  0  0  0
   54.0640   77.6730   28.2940 C   0  0  0  0  0  0  0  0  0  0  0  0
   52.8060   77.2570   28.1050 F   0  0  0  0  0  0  0  0  0  0  0  0
   54.6940   78.5720   27.4650 C   0  0  0  0  0  0  0  0  0  0  0  0
   54.0490   79.1190   26.2800 C   0  0  0  0  0  0  0  0  0  0  0  0
   53.3940   78.4310   25.2760 C   0  0  0  0  0  0  0  0  0  0  0  0
   52.9340   79.2680   24.3040 N   0  0  0  0  0  0  0  0  0  0  0  0
   53.2800   80.4780   24.6840 C   0  0  0  0  0  0  0  0  0  0  0  0
   52.9980   81.7140   23.9060 C   0  0  0  0  0  0  0  0  0  0  0  0
   53.9340   80.4500   25.9100 N   0  0  0  0  0  0  0  0  0  0  0  0
   54.3400   81.6490   26.6440 C   0  0  0  0  0  0  0  0  0  0  0  0
   55.5670   82.3680   26.0750 C   0  0  0  0  0  0  0  0  0  0  0  0
   53.1730   82.6030   26.8970 C   0  0  0  0  0  0  0  0  0  0  0  0
   55.9690   78.9760   27.6540 N   0  0  0  0  0  0  0  0  0  0  0  0
   58.6990   79.8590   31.0050 C   0  0  0  0  0  0  0  0  0  0  0  0
   59.3250   80.8910   31.7100 C   0  0  0  0  0  0  0  0  0  0  0  0
   59.4410   80.7220   33.0660 O   0  0  0  0  0  0  0  0  0  0  0  0
   61.6250   85.2920   31.3820 C   0  0  0  0  0  0  0  0  0  0  0  0
   62.7340   85.9900   30.8940 C   0  0  0  0  0  0  0  0  0  0  0  0
   63.6524   88.1300   29.3535 H   0  0  0  0  0  0  0  0  0  0  0  0
   63.8781   89.1959   27.9253 H   0  0  0  0  0  0  0  0  0  0  0  0
   62.5766   87.9578   27.9253 H   0  0  0  0  0  0  0  0  0  0  0  0
   65.5013   88.1233   25.9805 H   0  0  0  0  0  0  0  0  0  0  0  0
   65.0518   86.4036   25.7210 H   0  0  0  0  0  0  0  0  0  0  0  0
   63.7816   87.6738   25.7210 H   0  0  0  0  0  0  0  0  0  0  0  0
   66.5215   84.5676   28.6309 H   0  0  0  0  0  0  0  0  0  0  0  0
   65.4589   84.4522   27.1872 H   0  0  0  0  0  0  0  0  0  0  0  0
   66.8544   85.5832   27.1872 H   0  0  0  0  0  0  0  0  0  0  0  0
   64.6504   83.3532   29.8623 H   0  0  0  0  0  0  0  0  0  0  0  0
   62.6767   82.1036   30.7399 H   0  0  0  0  0  0  0  0  0  0  0  0
   60.0920   82.9568   29.1102 H   0  0  0  0  0  0  0  0  0  0  0  0
   58.9771   81.1195   27.8620 H   0  0  0  0  0  0  0  0  0  0  0  0
   58.5380   78.3580   28.2640 H   0  0  0  0  0  0  0  0  0  0  0  0
   54.3462   76.5095   30.0503 H   0  0  0  0  0  0  0  0  0  0  0  0
   53.2602   77.3392   25.2631 H   0  0  0  0  0  0  0  0  0  0  0  0
   52.8078   82.5475   24.5981 H   0  0  0  0  0  0  0  0  0  0  0  0
   53.8645   81.9540   23.2723 H   0  0  0  0  0  0  0  0  0  0  0  0
   52.1132   81.5545   23.2723 H   0  0  0  0  0  0  0  0  0  0  0  0
   54.6717   81.2700   27.6219 H   0  0  0  0  0  0  0  0  0  0  0  0
   56.1931   82.7349   26.9017 H   0  0  0  0  0  0  0  0  0  0  0  0
   56.1486   81.6678   25.4574 H   0  0  0  0  0  0  0  0  0  0  0  0
   55.2405   83.2176   25.4574 H   0  0  0  0  0  0  0  0  0  0  0  0
   53.0260   82.7232   27.9805 H   0  0  0  0  0  0  0  0  0  0  0  0
   53.3950   83.5816   26.4463 H   0  0  0  0  0  0  0  0  0  0  0  0
   52.2581   82.1908   26.4463 H   0  0  0  0  0  0  0  0  0  0  0  0
   58.3134   78.9862   31.5523 H   0  0  0  0  0  0  0  0  0  0  0  0
   60.0910   80.0020   33.2250 H   0  0  0  0  0  0  0  0  0  0  0  0
   60.7800   85.8389   31.8257 H   0  0  0  0  0  0  0  0  0  0  0  0
   62.7506   87.0888   30.9433 H   0  0  0  0  0  0  0  0  0  0  0  0
  1  2  1  0
  2  3  1  0
  2  4  2  3
  4  5  1  0
  4  6  1  0
  6  7  2  0
  6  8  1  0
  8  9  1  0
  9 10  2  0
 10 11  1  0
 11 12  1  0
 12 13  2  0
 12 14  1  0
 14 15  1  0
 15 16  2  0
 16 17  1  0
 17 18  1  0
 18 19  1  0
 19 20  2  0
 20 21  1  0
 21 22  2  0
 22 23  1  0
 22 24  1  0
 24 25  1  0
 25 26  2  0
 26 27  1  0
 27 28  2  0
 28 29  1  0
 28 30  1  0
 30 31  1  0
 31 32  1  0
 31 33  1  0
 24 34  2  0
 17 35  2  0
 35 36  1  0
 36 37  1  0
 11 38  2  0
 38 39  1  0
 39  8  2  0
 36 14  2  0
 34 19  1  0
 30 25  1  0
  1 40  1  0
  1 41  1  0
  1 42  1  0
  3 43  1  0
  3 44  1  0
  3 45  1  0
  5 46  1  0
  5 47  1  0
  5 48  1  0
  9 49  1  0
 10 50  1  0
 15 51  1  0
 16 52  1  0
 18 53  1  0
 21 54  1  0
 26 55  1  0
 29 56  1  0
 29 57  1  0
 29 58  1  0
 31 59  1  0
 32 60  1  0
 32 61  1  0
 32 62  1  0
 33 63  1  0
 33 64  1  0
 33 65  1  0
 35 66  1  0
 37 67  1  0
 38 68  1  0
 39 69  1  0
M  END
>  <meeko>  (1) 
{"is_sidechain": false}

>  <smiles>  (1) 
CC(C)=C(C)C(=O)c1ccc(C(=O)c2ccc(Nc3ncc(F)c(-c4cnc(C)n4C(C)C)n3)cc2O)cc1

>  <vina_score>  (1) 
-9.892

>  <job_id>  (1) 
f1819382005aae96

$$$$
