
     RDKit          3D

 56 59  0  0  0  0  0  0  0  0999 V2000
   57.3140   86.9800   32.9810 C   0  0  0  0  0  0  0  0  0  0  0  0
   57.4360   85.6050   32.5640 N   0  0  0  0  0  0  0  0  0  0  0  0
   58.6640   85.0930   32.1940 C   0  0  0  0  0  0  0  0  0  0  0  0
   59.6850   85.7680   32.1260 O   0  0  0  0  0  0  0  0  0  0  0  0
   58.7100   83.6320   31.9120 C   0  0  0  0  0  0  0  0  0  0  0  0
   58.0410   82.7000   32.7140 C   0  0  0  0  0  0  0  0  0  0  0  0
   58.1130   81.3360   32.4100 C   0  0  0  0  0  0  0  0  0  0  0  0
   58.8620   80.8780   31.3190 C   0  0  0  0  0  0  0  0  0  0  0  0
   58.8990   79.5160   30.9490 N   0  0  0  0  0  0  0  0  0  0  0  0
   58.9350   79.1070   29.6320 N   0  0  0  0  0  0  0  0  0  0  0  0
   57.7850   79.3280   28.8310 C   0  0  0  0  0  0  0  0  0  0  0  0
   56.6950   78.4800   28.9660 C   0  0  0  0  0  0  0  0  0  0  0  0
   55.5710   78.6720   28.1560 C   0  0  0  0  0  0  0  0  0  0  0  0
   55.5260   79.6950   27.2060 C   0  0  0  0  0  0  0  0  0  0  0  0
   54.4280   79.9100   26.3930 N   0  0  0  0  0  0  0  0  0  0  0  0
   53.8940   78.8670   25.5030 C   0  0  0  0  0  0  0  0  0  0  0  0
   53.1280   79.5030   24.3190 C   0  0  0  0  0  0  0  0  0  0  0  0
   51.9740   80.3420   24.7120 N   0  0  0  0  0  0  0  0  0  0  0  0
   51.6690   81.3650   23.7050 C   0  0  0  0  0  0  0  0  0  0  0  0
   51.9260   80.8470   22.3180 C   0  0  0  0  0  0  0  0  0  0  0  0
   51.1140   81.3470   21.1480 C   0  0  0  0  0  0  0  0  0  0  0  0
   52.5610   81.7330   21.2750 C   0  0  0  0  0  0  0  0  0  0  0  0
   52.1860   80.9430   26.0470 C   0  0  0  0  0  0  0  0  0  0  0  0
   53.6600   81.1660   26.4580 C   0  0  0  0  0  0  0  0  0  0  0  0
   56.6890   80.4710   27.1460 C   0  0  0  0  0  0  0  0  0  0  0  0
   57.8010   80.3180   27.9140 N   0  0  0  0  0  0  0  0  0  0  0  0
   59.4880   81.8240   30.4970 C   0  0  0  0  0  0  0  0  0  0  0  0
   59.4190   83.1900   30.7920 C   0  0  0  0  0  0  0  0  0  0  0  0
   57.3095   87.0309   34.0798 H   0  0  0  0  0  0  0  0  0  0  0  0
   58.1644   87.5584   32.5906 H   0  0  0  0  0  0  0  0  0  0  0  0
   56.3751   87.3996   32.5906 H   0  0  0  0  0  0  0  0  0  0  0  0
   56.7160   84.9590   32.8590 H   0  0  0  0  0  0  0  0  0  0  0  0
   57.4587   83.0398   33.5832 H   0  0  0  0  0  0  0  0  0  0  0  0
   57.5728   80.6122   33.0379 H   0  0  0  0  0  0  0  0  0  0  0  0
   58.2560   78.9450   31.5130 H   0  0  0  0  0  0  0  0  0  0  0  0
   59.2170   78.1320   29.5380 H   0  0  0  0  0  0  0  0  0  0  0  0
   56.7147   77.6641   29.7035 H   0  0  0  0  0  0  0  0  0  0  0  0
   54.7047   78.0037   28.2694 H   0  0  0  0  0  0  0  0  0  0  0  0
   54.7267   78.2634   25.1127 H   0  0  0  0  0  0  0  0  0  0  0  0
   53.2006   78.2329   26.0750 H   0  0  0  0  0  0  0  0  0  0  0  0
   53.8316   80.1308   23.7526 H   0  0  0  0  0  0  0  0  0  0  0  0
   52.7209   78.6699   23.7273 H   0  0  0  0  0  0  0  0  0  0  0  0
   50.6105   81.6513   23.7919 H   0  0  0  0  0  0  0  0  0  0  0  0
   52.3186   82.2351   23.8807 H   0  0  0  0  0  0  0  0  0  0  0  0
   52.1515   79.8580   22.7435 H   0  0  0  0  0  0  0  0  0  0  0  0
   50.7987   80.6483   20.3591 H   0  0  0  0  0  0  0  0  0  0  0  0
   50.1692   81.8993   21.0371 H   0  0  0  0  0  0  0  0  0  0  0  0
   53.3040   81.3167   20.5788 H   0  0  0  0  0  0  0  0  0  0  0  0
   53.1123   82.6847   21.2953 H   0  0  0  0  0  0  0  0  0  0  0  0
   51.6800   81.9196   26.0617 H   0  0  0  0  0  0  0  0  0  0  0  0
   51.7809   80.2184   26.7687 H   0  0  0  0  0  0  0  0  0  0  0  0
   54.1151   81.9003   25.7770 H   0  0  0  0  0  0  0  0  0  0  0  0
   53.6805   81.5331   27.4947 H   0  0  0  0  0  0  0  0  0  0  0  0
   56.7054   81.2841   26.4054 H   0  0  0  0  0  0  0  0  0  0  0  0
   60.0413   81.4883   29.6075 H   0  0  0  0  0  0  0  0  0  0  0  0
   59.9243   83.9180   30.1404 H   0  0  0  0  0  0  0  0  0  0  0  0
  1  2  1  0
  2  3  1  0
  3  4  2  0
  3  5  1  0
  5  6  1  0
  6  7  2  0
  7  8  1  0
  8  9  1  0
  9 10  1  0
 10 11  1  0
 11 12  2  0
 12 13  1  0
 13 14  2  0
 14 15  1  0
 15 16  1  0
 16 17  1  0
 17 18  1  0
 18 19  1  0
 19 20  1  0
 20 21  1  0
 21 22  1  0
 18 23  1  0
 23 24  1  0
 14 25  1  0
 25 26  2  0
  8 27  2  0
 27 28  1  0
 28  5  2  0
 26 11  1  0
 24 15  1  0
 22 20  1  0
  1 29  1  0
  1 30  1  0
  1 31  1  0
  2 32  1  0
  6 33  1  0
  7 34  1  0
  9 35  1  0
 10 36  1  0
 12 37  1  0
 13 38  1  0
 16 39  1  0
 16 40  1  0
 17 41  1  0
 17 42  1  0
 19 43  1  0
 19 44  1  0
 20 45  1  0
 21 46  1  0
 21 47  1  0
 22 48  1  0
 22 49  1  0
 23 50  1  0
 23 51  1  0
 24 52  1  0
 24 53  1  0
 25 54  1  0
 27 55  1  0
 28 56  1  0
M  END
>  <meeko>  (1) 
{"is_sidechain": false}

>  <smiles>  (1) 
CNC(=O)c1ccc(NNc2ccc(N3CCN(CC4CC4)CC3)cn2)cc1

>  <vina_score>  (1) 
-8.208

>  <job_id>  (1) 
f2453708f2892624

$$$$
