
     RDKit          3D

 54 57  0  0  0  0  0  0  0  0999 V2000
   55.3140   86.9200   26.1870 C   0  0  0  0  0  0  0  0  0  0  0  0
   55.1900   85.4490   26.4820 C   0  0  0  0  0  0  0  0  0  0  0  0
   55.9350   84.8750   27.2700 O   0  0  0  0  0  0  0  0  0  0  0  0
   54.1680   84.8230   25.8030 N   0  0  0  0  0  0  0  0  0  0  0  0
   53.8490   83.4370   26.0610 C   0  0  0  0  0  0  0  0  0  0  0  0
   52.6130   82.9610   25.3080 C   0  0  0  0  0  0  0  0  0  0  0  0
   52.7100   81.4430   25.3990 C   0  0  0  0  0  0  0  0  0  0  0  0
   54.2160   81.1320   25.4010 C   0  0  0  0  0  0  0  0  0  0  0  0
   54.5990   80.1240   26.4410 C   0  0  0  0  0  0  0  0  0  0  0  0
   55.8220   79.9160   26.8930 N   0  0  0  0  0  0  0  0  0  0  0  0
   55.6990   78.9190   27.8410 C   0  0  0  0  0  0  0  0  0  0  0  0
   56.6750   78.2870   28.6460 C   0  0  0  0  0  0  0  0  0  0  0  0
   58.0110   78.6810   28.5800 N   0  0  0  0  0  0  0  0  0  0  0  0
   58.6160   79.6610   29.4940 C   0  0  2  0  0  0  0  0  0  0  0  0
   57.8310   79.8570   30.7930 C   0  0  0  0  0  0  0  0  0  0  0  0
   58.5430   80.7900   31.7800 C   0  0  0  0  0  0  0  0  0  0  0  0
   59.4200   81.8650   31.1150 C   0  0  1  0  0  0  0  0  0  0  0  0
   60.8100   81.4070   31.0500 N   0  0  0  0  0  0  0  0  0  0  0  0
   58.9190   82.1930   29.7060 C   0  0  0  0  0  0  0  0  0  0  0  0
   58.9380   80.9780   28.7700 C   0  0  0  0  0  0  0  0  0  0  0  0
   56.1780   77.3080   29.5160 C   0  0  0  0  0  0  0  0  0  0  0  0
   54.8140   77.0010   29.5290 C   0  0  0  0  0  0  0  0  0  0  0  0
   53.8590   77.5750   28.7590 N   0  0  0  0  0  0  0  0  0  0  0  0
   54.3780   78.5170   27.9550 C   0  0  0  0  0  0  0  0  0  0  0  0
   53.6950   79.2910   27.0640 N   0  0  0  0  0  0  0  0  0  0  0  0
   54.9340   82.4780   25.5810 C   0  0  0  0  0  0  0  0  0  0  0  0
   55.3613   87.4808   27.1321 H   0  0  0  0  0  0  0  0  0  0  0  0
   56.2306   87.1016   25.6067 H   0  0  0  0  0  0  0  0  0  0  0  0
   54.4407   87.2525   25.6067 H   0  0  0  0  0  0  0  0  0  0  0  0
   53.4750   85.4020   25.3460 H   0  0  0  0  0  0  0  0  0  0  0  0
   53.7156   83.4173   27.1527 H   0  0  0  0  0  0  0  0  0  0  0  0
   51.6936   83.3266   25.7887 H   0  0  0  0  0  0  0  0  0  0  0  0
   52.5721   83.3284   24.2720 H   0  0  0  0  0  0  0  0  0  0  0  0
   52.2408   81.0818   26.3260 H   0  0  0  0  0  0  0  0  0  0  0  0
   52.1902   80.9481   24.5654 H   0  0  0  0  0  0  0  0  0  0  0  0
   54.5154   80.6581   24.4546 H   0  0  0  0  0  0  0  0  0  0  0  0
   58.5840   77.8350   28.5040 H   0  0  0  0  0  0  0  0  0  0  0  0
   59.5753   79.2337   29.8212 H   0  0  0  0  0  0  0  0  0  0  0  0
   56.8483   80.2869   30.5488 H   0  0  0  0  0  0  0  0  0  0  0  0
   57.7362   78.8730   31.2755 H   0  0  0  0  0  0  0  0  0  0  0  0
   57.7787   81.2965   32.3878 H   0  0  0  0  0  0  0  0  0  0  0  0
   59.2170   80.1598   32.3788 H   0  0  0  0  0  0  0  0  0  0  0  0
   59.3609   82.7784   31.7251 H   0  0  0  0  0  0  0  0  0  0  0  0
   61.4290   82.2070   30.9220 H   0  0  0  0  0  0  0  0  0  0  0  0
   61.0750   80.9840   31.9400 H   0  0  0  0  0  0  0  0  0  0  0  0
   57.8863   82.5649   29.7780 H   0  0  0  0  0  0  0  0  0  0  0  0
   59.5964   82.9485   29.2814 H   0  0  0  0  0  0  0  0  0  0  0  0
   58.1920   81.1341   27.9768 H   0  0  0  0  0  0  0  0  0  0  0  0
   59.9560   80.8907   28.3626 H   0  0  0  0  0  0  0  0  0  0  0  0
   56.8645   76.7779   30.1926 H   0  0  0  0  0  0  0  0  0  0  0  0
   54.4857   76.2199   30.2305 H   0  0  0  0  0  0  0  0  0  0  0  0
   52.7000   79.2390   26.9070 H   0  0  0  0  0  0  0  0  0  0  0  0
   55.7350   82.3928   26.3301 H   0  0  0  0  0  0  0  0  0  0  0  0
   55.4107   82.8220   24.6513 H   0  0  0  0  0  0  0  0  0  0  0  0
  1  2  1  0
  2  3  2  0
  2  4  1  0
  4  5  1  0
  5  6  1  0
  6  7  1  0
  7  8  1  0
  8  9  1  0
  9 10  2  0
 10 11  1  0
 11 12  2  0
 12 13  1  0
 13 14  1  0
 14 15  1  0
 15 16  1  0
 16 17  1  0
 17 18  1  0
 17 19  1  0
 19 20  1  0
 12 21  1  0
 21 22  2  0
 22 23  1  0
 23 24  2  0
 24 25  1  0
  8 26  1  0
 26  5  1  0
 25  9  1  0
 24 11  1  0
 20 14  1  0
  1 27  1  0
  1 28  1  0
  1 29  1  0
  4 30  1  0
  5 31  1  0
  6 32  1  0
  6 33  1  0
  7 34  1  0
  7 35  1  0
  8 36  1  0
 13 37  1  0
 14 38  1  6
 15 39  1  0
 15 40  1  0
 16 41  1  0
 16 42  1  0
 17 43  1  6
 18 44  1  0
 18 45  1  0
 19 46  1  0
 19 47  1  0
 20 48  1  0
 20 49  1  0
 21 50  1  0
 22 51  1  0
 25 52  1  0
 26 53  1  0
 26 54  1  0
M  END
>  <meeko>  (1) 
{"is_sidechain": false}

>  <smiles>  (1) 
CC(=O)NC1CCC(c2nc3c(N[C@H]4CC[C@H](N)CC4)ccnc3[nH]2)C1

>  <vina_score>  (1) 
-8.842

>  <job_id>  (1) 
f261b94362d90ed1

$$$$
