
     RDKit          3D

 40 41  0  0  0  0  0  0  0  0999 V2000
   63.3140   82.3320   31.0270 C   0  0  0  0  0  0  0  0  0  0  0  0
   62.3190   83.4640   31.2120 C   0  0  0  0  0  0  0  0  0  0  0  0
   60.9000   83.0660   30.8310 C   0  0  0  0  0  0  0  0  0  0  0  0
   59.9700   83.8610   30.8670 O   0  0  0  0  0  0  0  0  0  0  0  0
   60.8400   81.7310   30.4570 N   0  0  0  0  0  0  0  0  0  0  0  0
   59.7080   80.9920   30.0390 C   0  0  0  0  0  0  0  0  0  0  0  0
   59.3050   80.9290   28.7030 C   0  0  0  0  0  0  0  0  0  0  0  0
   58.1780   80.1910   28.3210 C   0  0  0  0  0  0  0  0  0  0  0  0
   57.4170   79.4910   29.2620 C   0  0  0  0  0  0  0  0  0  0  0  0
   56.2320   78.7160   28.8610 C   0  0  0  0  0  0  0  0  0  0  0  0
   55.4130   79.1450   27.8020 C   0  0  0  0  0  0  0  0  0  0  0  0
   54.2870   78.4110   27.4170 C   0  0  0  0  0  0  0  0  0  0  0  0
   53.9640   77.2370   28.0990 C   0  0  0  0  0  0  0  0  0  0  0  0
   52.5610   76.2880   27.5940 S   0  0  0  0  0  0  0  0  0  0  0  0
   53.0240   74.7310   28.0190 N   0  0  0  0  0  0  0  0  0  0  0  0
   52.4740   76.2970   26.1520 O   0  0  0  0  0  0  0  0  0  0  0  0
   51.4360   76.6130   28.4400 O   0  0  0  0  0  0  0  0  0  0  0  0
   54.7680   76.7820   29.1450 C   0  0  0  0  0  0  0  0  0  0  0  0
   55.8920   77.5230   29.5230 C   0  0  0  0  0  0  0  0  0  0  0  0
   57.8230   79.5550   30.6030 C   0  0  0  0  0  0  0  0  0  0  0  0
   58.9540   80.2940   31.0060 C   0  0  0  0  0  0  0  0  0  0  0  0
   59.3080   80.3070   32.4710 C   0  0  0  0  0  0  0  0  0  0  0  0
   63.6377   81.9638   32.0117 H   0  0  0  0  0  0  0  0  0  0  0  0
   62.8380   81.5132   30.4676 H   0  0  0  0  0  0  0  0  0  0  0  0
   64.1872   82.6991   30.4676 H   0  0  0  0  0  0  0  0  0  0  0  0
   62.3270   83.7706   32.2684 H   0  0  0  0  0  0  0  0  0  0  0  0
   62.6235   84.2863   30.5478 H   0  0  0  0  0  0  0  0  0  0  0  0
   61.7150   81.2250   30.4900 H   0  0  0  0  0  0  0  0  0  0  0  0
   59.8828   81.4683   27.9380 H   0  0  0  0  0  0  0  0  0  0  0  0
   57.8860   80.1615   27.2609 H   0  0  0  0  0  0  0  0  0  0  0  0
   55.6622   80.0735   27.2674 H   0  0  0  0  0  0  0  0  0  0  0  0
   53.6598   78.7566   26.5820 H   0  0  0  0  0  0  0  0  0  0  0  0
   53.4650   74.2710   27.2230 H   0  0  0  0  0  0  0  0  0  0  0  0
   52.2240   74.2240   28.3990 H   0  0  0  0  0  0  0  0  0  0  0  0
   54.5193   75.8470   29.6684 H   0  0  0  0  0  0  0  0  0  0  0  0
   56.5208   77.1666   30.3522 H   0  0  0  0  0  0  0  0  0  0  0  0
   57.2416   79.0124   31.3630 H   0  0  0  0  0  0  0  0  0  0  0  0
   58.3868   80.2732   33.0711 H   0  0  0  0  0  0  0  0  0  0  0  0
   59.9308   79.4311   32.7055 H   0  0  0  0  0  0  0  0  0  0  0  0
   59.8648   81.2262   32.7055 H   0  0  0  0  0  0  0  0  0  0  0  0
  1  2  1  0
  2  3  1  0
  3  4  2  0
  3  5  1  0
  5  6  1  0
  6  7  1  0
  7  8  2  0
  8  9  1  0
  9 10  1  0
 10 11  1  0
 11 12  2  0
 12 13  1  0
 13 14  1  0
 14 15  1  0
 14 16  2  0
 14 17  2  0
 13 18  2  0
 18 19  1  0
  9 20  2  0
 20 21  1  0
 21 22  1  0
 21  6  2  0
 19 10  2  0
  1 23  1  0
  1 24  1  0
  1 25  1  0
  2 26  1  0
  2 27  1  0
  5 28  1  0
  7 29  1  0
  8 30  1  0
 11 31  1  0
 12 32  1  0
 15 33  1  0
 15 34  1  0
 18 35  1  0
 19 36  1  0
 20 37  1  0
 22 38  1  0
 22 39  1  0
 22 40  1  0
M  END
>  <meeko>  (1) 
{"is_sidechain": false}

>  <smiles>  (1) 
CCC(=O)Nc1ccc(-c2ccc(S(N)(=O)=O)cc2)cc1C

>  <vina_score>  (1) 
-7.978

>  <job_id>  (1) 
f2961d727e9580e4

$$$$
