
     RDKit          3D

 45 46  0  0  0  0  0  0  0  0999 V2000
   63.6610   83.6310   30.6490 C   0  0  0  0  0  0  0  0  0  0  0  0
   63.7850   82.7570   31.8050 N   0  0  0  0  0  0  0  0  0  0  0  0
   65.0750   82.1070   31.9690 C   0  0  0  0  0  0  0  0  0  0  0  0
   62.6960   82.2040   32.4760 C   0  0  0  0  0  0  0  0  0  0  0  0
   62.8240   81.2720   33.2750 O   0  0  0  0  0  0  0  0  0  0  0  0
   61.3090   82.7800   32.2160 C   0  0  0  0  0  0  0  0  0  0  0  0
   60.4260   81.9110   31.3500 C   0  0  0  0  0  0  0  0  0  0  0  0
   60.4400   82.0590   29.9560 C   0  0  0  0  0  0  0  0  0  0  0  0
   59.6090   81.2780   29.1460 C   0  0  0  0  0  0  0  0  0  0  0  0
   58.7480   80.3390   29.7240 C   0  0  0  0  0  0  0  0  0  0  0  0
   57.8390   79.4850   28.9090 C   0  0  0  0  0  0  0  0  0  0  0  0
   58.0410   79.3470   27.7080 O   0  0  0  0  0  0  0  0  0  0  0  0
   56.7780   78.9060   29.5740 N   0  0  0  0  0  0  0  0  0  0  0  0
   55.8690   77.9820   28.9080 C   0  0  0  0  0  0  0  0  0  0  0  0
   55.4400   76.8570   29.8540 C   0  0  0  0  0  0  0  0  0  0  0  0
   54.5680   75.8180   29.1450 C   0  0  0  0  0  0  0  0  0  0  0  0
   53.7710   76.3860   27.9710 C   0  0  0  0  0  0  0  0  0  0  0  0
   53.4080   77.8480   28.1880 C   0  0  0  0  0  0  0  0  0  0  0  0
   54.6480   78.7310   28.3500 C   0  0  0  0  0  0  0  0  0  0  0  0
   58.7030   80.2130   31.1160 C   0  0  0  0  0  0  0  0  0  0  0  0
   59.5330   80.9930   31.9230 C   0  0  0  0  0  0  0  0  0  0  0  0
   63.5140   84.6674   30.9870 H   0  0  0  0  0  0  0  0  0  0  0  0
   64.5769   83.5694   30.0429 H   0  0  0  0  0  0  0  0  0  0  0  0
   62.7984   83.3171   30.0429 H   0  0  0  0  0  0  0  0  0  0  0  0
   65.2959   81.9957   33.0408 H   0  0  0  0  0  0  0  0  0  0  0  0
   65.0484   81.1147   31.4951 H   0  0  0  0  0  0  0  0  0  0  0  0
   65.8567   82.7188   31.4951 H   0  0  0  0  0  0  0  0  0  0  0  0
   60.8081   82.9223   33.1849 H   0  0  0  0  0  0  0  0  0  0  0  0
   61.4573   83.7224   31.6683 H   0  0  0  0  0  0  0  0  0  0  0  0
   61.1119   82.7974   29.4941 H   0  0  0  0  0  0  0  0  0  0  0  0
   59.6325   81.4023   28.0533 H   0  0  0  0  0  0  0  0  0  0  0  0
   56.6530   79.0730   30.5620 H   0  0  0  0  0  0  0  0  0  0  0  0
   56.4038   77.5233   28.0633 H   0  0  0  0  0  0  0  0  0  0  0  0
   56.3393   76.3591   30.2457 H   0  0  0  0  0  0  0  0  0  0  0  0
   54.8478   77.3020   30.6672 H   0  0  0  0  0  0  0  0  0  0  0  0
   55.2199   75.0165   28.7673 H   0  0  0  0  0  0  0  0  0  0  0  0
   53.8387   75.4518   29.8826 H   0  0  0  0  0  0  0  0  0  0  0  0
   54.3758   76.3015   27.0561 H   0  0  0  0  0  0  0  0  0  0  0  0
   52.8370   75.8117   27.8824 H   0  0  0  0  0  0  0  0  0  0  0  0
   52.8308   78.2026   27.3214 H   0  0  0  0  0  0  0  0  0  0  0  0
   52.8194   77.9171   29.1147 H   0  0  0  0  0  0  0  0  0  0  0  0
   54.9129   79.1424   27.3648 H   0  0  0  0  0  0  0  0  0  0  0  0
   54.3918   79.5162   29.0765 H   0  0  0  0  0  0  0  0  0  0  0  0
   58.0094   79.4949   31.5778 H   0  0  0  0  0  0  0  0  0  0  0  0
   59.4866   80.8871   33.0169 H   0  0  0  0  0  0  0  0  0  0  0  0
  1  2  1  0
  2  3  1  0
  2  4  1  0
  4  5  2  0
  4  6  1  0
  6  7  1  0
  7  8  1  0
  8  9  2  0
  9 10  1  0
 10 11  1  0
 11 12  2  0
 11 13  1  0
 13 14  1  0
 14 15  1  0
 15 16  1  0
 16 17  1  0
 17 18  1  0
 18 19  1  0
 10 20  2  0
 20 21  1  0
 21  7  2  0
 19 14  1  0
  1 22  1  0
  1 23  1  0
  1 24  1  0
  3 25  1  0
  3 26  1  0
  3 27  1  0
  6 28  1  0
  6 29  1  0
  8 30  1  0
  9 31  1  0
 13 32  1  0
 14 33  1  0
 15 34  1  0
 15 35  1  0
 16 36  1  0
 16 37  1  0
 17 38  1  0
 17 39  1  0
 18 40  1  0
 18 41  1  0
 19 42  1  0
 19 43  1  0
 20 44  1  0
 21 45  1  0
M  END
>  <meeko>  (1) 
{"is_sidechain": false}

>  <smiles>  (1) 
CN(C)C(=O)Cc1ccc(C(=O)NC2CCCCC2)cc1

>  <vina_score>  (1) 
-7.284

>  <job_id>  (1) 
f2b69a452af3ad11

$$$$
