
     RDKit          3D

 50 52  0  0  0  0  0  0  0  0999 V2000
   52.1850   75.3720   26.3220 C   0  0  0  0  0  0  0  0  0  0  0  0
   52.3060   75.4270   27.7390 O   0  0  0  0  0  0  0  0  0  0  0  0
   53.3590   76.1400   28.2390 C   0  0  0  0  0  0  0  0  0  0  0  0
   54.3990   75.6360   29.0170 C   0  0  0  0  0  0  0  0  0  0  0  0
   55.4230   76.4820   29.4680 C   0  0  0  0  0  0  0  0  0  0  0  0
   55.4200   77.8390   29.1470 C   0  0  0  0  0  0  0  0  0  0  0  0
   56.4080   78.7540   29.5670 N   0  0  0  0  0  0  0  0  0  0  0  0
   57.5620   79.1100   28.8930 C   0  0  0  0  0  0  0  0  0  0  0  0
   57.9020   78.7510   27.7720 O   0  0  0  0  0  0  0  0  0  0  0  0
   58.4390   80.0710   29.6200 C   0  0  0  0  0  0  0  0  0  0  0  0
   59.2200   80.9580   28.8740 C   0  0  0  0  0  0  0  0  0  0  0  0
   60.0610   81.8660   29.5200 C   0  0  0  0  0  0  0  0  0  0  0  0
   60.1400   81.8950   30.9220 C   0  0  0  0  0  0  0  0  0  0  0  0
   59.3550   81.0020   31.6720 C   0  0  0  0  0  0  0  0  0  0  0  0
   58.5210   80.0810   31.0190 C   0  0  0  0  0  0  0  0  0  0  0  0
   59.4650   80.9900   33.1740 C   0  0  0  0  0  0  0  0  0  0  0  0
   59.9280   82.3400   33.7110 C   0  0  0  0  0  0  0  0  0  0  0  0
   61.1440   82.7930   33.0410 N   0  0  0  0  0  0  0  0  0  0  0  0
   62.0400   83.5580   33.7900 C   0  0  0  0  0  0  0  0  0  0  0  0
   61.7120   84.6400   34.2820 O   0  0  0  0  0  0  0  0  0  0  0  0
   63.4380   82.9800   34.0410 C   0  0  0  0  0  0  0  0  0  0  0  0
   64.4390   83.6040   33.0690 C   0  0  0  0  0  0  0  0  0  0  0  0
   63.4350   81.4590   33.8770 C   0  0  0  0  0  0  0  0  0  0  0  0
   61.0690   82.8890   31.5830 C   0  0  0  0  0  0  0  0  0  0  0  0
   54.3710   78.3430   28.3690 C   0  0  0  0  0  0  0  0  0  0  0  0
   53.3510   77.4980   27.9200 C   0  0  0  0  0  0  0  0  0  0  0  0
   51.2138   74.9305   26.0538 H   0  0  0  0  0  0  0  0  0  0  0  0
   52.2522   76.3891   25.9085 H   0  0  0  0  0  0  0  0  0  0  0  0
   52.9955   74.7538   25.9085 H   0  0  0  0  0  0  0  0  0  0  0  0
   54.4173   74.5679   29.2793 H   0  0  0  0  0  0  0  0  0  0  0  0
   56.2376   76.0703   30.0819 H   0  0  0  0  0  0  0  0  0  0  0  0
   56.2080   79.2460   30.4280 H   0  0  0  0  0  0  0  0  0  0  0  0
   59.1720   80.9407   27.7752 H   0  0  0  0  0  0  0  0  0  0  0  0
   60.6674   82.5652   28.9255 H   0  0  0  0  0  0  0  0  0  0  0  0
   57.9295   79.3643   31.6076 H   0  0  0  0  0  0  0  0  0  0  0  0
   58.4800   80.7535   33.6027 H   0  0  0  0  0  0  0  0  0  0  0  0
   60.2086   80.2314   33.4596 H   0  0  0  0  0  0  0  0  0  0  0  0
   59.1323   83.0817   33.5478 H   0  0  0  0  0  0  0  0  0  0  0  0
   60.1453   82.2291   34.7836 H   0  0  0  0  0  0  0  0  0  0  0  0
   63.7326   83.2181   35.0737 H   0  0  0  0  0  0  0  0  0  0  0  0
   65.2388   84.1026   33.6362 H   0  0  0  0  0  0  0  0  0  0  0  0
   64.8744   82.8171   32.4356 H   0  0  0  0  0  0  0  0  0  0  0  0
   63.9242   84.3414   32.4356 H   0  0  0  0  0  0  0  0  0  0  0  0
   63.4341   80.9833   34.8688 H   0  0  0  0  0  0  0  0  0  0  0  0
   62.5362   81.1518   33.3221 H   0  0  0  0  0  0  0  0  0  0  0  0
   64.3325   81.1483   33.3221 H   0  0  0  0  0  0  0  0  0  0  0  0
   60.7242   83.9013   31.3253 H   0  0  0  0  0  0  0  0  0  0  0  0
   62.0780   82.6616   31.2085 H   0  0  0  0  0  0  0  0  0  0  0  0
   54.3488   79.4116   28.1089 H   0  0  0  0  0  0  0  0  0  0  0  0
   52.5338   77.9086   27.3088 H   0  0  0  0  0  0  0  0  0  0  0  0
  1  2  1  0
  2  3  1  0
  3  4  1  0
  4  5  2  0
  5  6  1  0
  6  7  1  0
  7  8  1  0
  8  9  2  0
  8 10  1  0
 10 11  1  0
 11 12  2  0
 12 13  1  0
 13 14  2  0
 14 15  1  0
 14 16  1  0
 16 17  1  0
 17 18  1  0
 18 19  1  0
 19 20  2  0
 19 21  1  0
 21 22  1  0
 21 23  1  0
 18 24  1  0
  6 25  2  0
 25 26  1  0
 26  3  2  0
 15 10  2  0
 24 13  1  0
  1 27  1  0
  1 28  1  0
  1 29  1  0
  4 30  1  0
  5 31  1  0
  7 32  1  0
 11 33  1  0
 12 34  1  0
 15 35  1  0
 16 36  1  0
 16 37  1  0
 17 38  1  0
 17 39  1  0
 21 40  1  0
 22 41  1  0
 22 42  1  0
 22 43  1  0
 23 44  1  0
 23 45  1  0
 23 46  1  0
 24 47  1  0
 24 48  1  0
 25 49  1  0
 26 50  1  0
M  END
>  <meeko>  (1) 
{"is_sidechain": false}

>  <smiles>  (1) 
COc1ccc(NC(=O)c2ccc3c(c2)CCN(C(=O)C(C)C)C3)cc1

>  <vina_score>  (1) 
-7.954

>  <job_id>  (1) 
f2bfd2bbd18a2450

$$$$
