
     RDKit          3D

 35 36  0  0  0  0  0  0  0  0999 V2000
   61.7350   83.8740   31.0570 C   0  0  0  0  0  0  0  0  0  0  0  0
   60.4970   83.0570   30.7730 C   0  0  0  0  0  0  0  0  0  0  0  0
   59.1630   83.7230   31.0180 C   0  0  0  0  0  0  0  0  0  0  0  0
   60.6580   81.8480   30.3230 N   0  0  0  0  0  0  0  0  0  0  0  0
   59.5370   81.0620   30.0290 C   0  0  0  0  0  0  0  0  0  0  0  0
   58.9350   80.2850   31.0120 C   0  0  0  0  0  0  0  0  0  0  0  0
   57.8320   79.4900   30.6930 C   0  0  0  0  0  0  0  0  0  0  0  0
   57.3500   79.4720   29.3820 C   0  0  0  0  0  0  0  0  0  0  0  0
   56.1860   78.6600   28.9570 C   0  0  0  0  0  0  0  0  0  0  0  0
   55.8820   77.4160   29.5440 C   0  0  0  0  0  0  0  0  0  0  0  0
   54.7780   76.6630   29.1300 C   0  0  0  0  0  0  0  0  0  0  0  0
   53.9540   77.1480   28.1140 C   0  0  0  0  0  0  0  0  0  0  0  0
   52.5600   76.1890   27.5840 S   0  0  0  0  0  0  0  0  0  0  0  0
   53.0410   74.6350   28.0200 N   0  0  0  0  0  0  0  0  0  0  0  0
   51.4360   76.5010   28.4350 O   0  0  0  0  0  0  0  0  0  0  0  0
   52.4860   76.2420   26.1440 O   0  0  0  0  0  0  0  0  0  0  0  0
   54.2380   78.3630   27.4930 C   0  0  0  0  0  0  0  0  0  0  0  0
   55.3430   79.1070   27.9180 C   0  0  0  0  0  0  0  0  0  0  0  0
   57.9290   80.2210   28.4090 N   0  0  0  0  0  0  0  0  0  0  0  0
   59.0070   80.9730   28.7470 C   0  0  0  0  0  0  0  0  0  0  0  0
   61.8728   83.9649   32.1445 H   0  0  0  0  0  0  0  0  0  0  0  0
   62.6117   83.3764   30.6167 H   0  0  0  0  0  0  0  0  0  0  0  0
   61.6223   84.8757   30.6167 H   0  0  0  0  0  0  0  0  0  0  0  0
   58.9897   83.8095   32.1008 H   0  0  0  0  0  0  0  0  0  0  0  0
   59.1652   84.7257   30.5658 H   0  0  0  0  0  0  0  0  0  0  0  0
   58.3629   83.1186   30.5658 H   0  0  0  0  0  0  0  0  0  0  0  0
   59.3269   80.2963   32.0398 H   0  0  0  0  0  0  0  0  0  0  0  0
   57.3456   78.8815   31.4696 H   0  0  0  0  0  0  0  0  0  0  0  0
   56.5272   77.0279   30.3459 H   0  0  0  0  0  0  0  0  0  0  0  0
   54.5608   75.6939   29.6029 H   0  0  0  0  0  0  0  0  0  0  0  0
   53.9410   74.3650   27.6230 H   0  0  0  0  0  0  0  0  0  0  0  0
   53.0390   74.5660   29.0390 H   0  0  0  0  0  0  0  0  0  0  0  0
   53.5996   78.7328   26.6771 H   0  0  0  0  0  0  0  0  0  0  0  0
   55.5610   80.0677   27.4285 H   0  0  0  0  0  0  0  0  0  0  0  0
   59.4958   81.5530   27.9503 H   0  0  0  0  0  0  0  0  0  0  0  0
  1  2  1  0
  2  3  1  0
  2  4  2  3
  4  5  1  0
  5  6  2  0
  6  7  1  0
  7  8  2  0
  8  9  1  0
  9 10  1  0
 10 11  2  0
 11 12  1  0
 12 13  1  0
 13 14  1  0
 13 15  2  0
 13 16  2  0
 12 17  2  0
 17 18  1  0
  8 19  1  0
 19 20  2  0
 20  5  1  0
 18  9  2  0
  1 21  1  0
  1 22  1  0
  1 23  1  0
  3 24  1  0
  3 25  1  0
  3 26  1  0
  6 27  1  0
  7 28  1  0
 10 29  1  0
 11 30  1  0
 14 31  1  0
 14 32  1  0
 17 33  1  0
 18 34  1  0
 20 35  1  0
M  END
>  <meeko>  (1) 
{"is_sidechain": false}

>  <smiles>  (1) 
CC(C)=Nc1ccc(-c2ccc(S(N)(=O)=O)cc2)nc1

>  <vina_score>  (1) 
-7.281

>  <job_id>  (1) 
f2d3ea41655177ac

$$$$
