
     RDKit          3D

 59 63  0  0  0  0  0  0  0  0999 V2000
   49.3500   81.1720   22.1010 N   0  0  0  0  0  0  0  0  0  0  0  0
   50.8590   81.5350   21.4600 S   0  0  0  0  0  0  0  0  0  0  0  0
   50.8750   82.9670   21.2700 O   0  0  0  0  0  0  0  0  0  0  0  0
   51.0600   80.6070   20.3720 O   0  0  0  0  0  0  0  0  0  0  0  0
   51.9350   81.1120   22.7970 C   0  0  0  0  0  0  0  0  0  0  0  0
   52.2300   79.7710   23.0490 C   0  0  0  0  0  0  0  0  0  0  0  0
   53.1020   79.4420   24.0920 C   0  0  0  0  0  0  0  0  0  0  0  0
   53.6950   80.4400   24.8850 C   0  0  0  0  0  0  0  0  0  0  0  0
   54.6140   80.0890   25.9800 C   0  0  0  0  0  0  0  0  0  0  0  0
   55.8300   80.7600   26.1530 C   0  0  0  0  0  0  0  0  0  0  0  0
   56.7020   80.4200   27.1960 C   0  0  0  0  0  0  0  0  0  0  0  0
   56.3920   79.3970   28.1040 C   0  0  0  0  0  0  0  0  0  0  0  0
   57.3130   79.1020   29.1330 N   0  0  0  0  0  0  0  0  0  0  0  0
   58.3180   79.8280   29.6810 C   0  0  0  0  0  0  0  0  0  0  0  0
   58.3550   80.0910   31.0740 C   0  0  0  0  0  0  0  0  0  0  0  0
   59.4970   80.8330   31.3040 C   0  0  0  0  0  0  0  0  0  0  0  0
   60.0620   81.4000   32.5260 C   0  0  0  0  0  0  0  0  0  0  0  0
   60.1810   82.7890   32.6670 C   0  0  0  0  0  0  0  0  0  0  0  0
   60.7220   83.3460   33.8330 C   0  0  0  0  0  0  0  0  0  0  0  0
   61.1420   82.5300   34.8850 C   0  0  0  0  0  0  0  0  0  0  0  0
   61.7070   83.1210   36.0290 N   0  0  0  0  0  0  0  0  0  0  0  0
   62.7800   83.6990   35.7480 N   0  0  0  0  0  0  0  0  0  0  0  0
   63.3460   84.2780   36.8980 C   0  0  0  0  0  0  0  0  0  0  0  0
   63.5340   83.5430   38.0790 C   0  0  0  0  0  0  0  0  0  0  0  0
   64.0700   84.1490   39.2170 C   0  0  0  0  0  0  0  0  0  0  0  0
   64.4130   85.4990   39.1860 C   0  0  0  0  0  0  0  0  0  0  0  0
   64.2170   86.2320   38.0220 C   0  0  0  0  0  0  0  0  0  0  0  0
   64.5610   87.5520   38.0380 O   0  0  0  0  0  0  0  0  0  0  0  0
   63.6830   85.6370   36.8820 C   0  0  0  0  0  0  0  0  0  0  0  0
   61.0330   81.1410   34.7420 C   0  0  0  0  0  0  0  0  0  0  0  0
   60.4930   80.5810   33.5770 C   0  0  0  0  0  0  0  0  0  0  0  0
   60.0510   80.9820   30.0600 N   0  0  0  0  0  0  0  0  0  0  0  0
   59.3690   80.3830   29.0760 N   0  0  0  0  0  0  0  0  0  0  0  0
   55.1770   78.7300   27.9310 C   0  0  0  0  0  0  0  0  0  0  0  0
   54.3030   79.0670   26.8880 C   0  0  0  0  0  0  0  0  0  0  0  0
   53.3900   81.7840   24.6010 C   0  0  0  0  0  0  0  0  0  0  0  0
   52.5190   82.1220   23.5610 C   0  0  0  0  0  0  0  0  0  0  0  0
   49.4160   81.0880   23.1160 H   0  0  0  0  0  0  0  0  0  0  0  0
   48.9690   80.3440   21.6420 H   0  0  0  0  0  0  0  0  0  0  0  0
   51.7801   78.9792   22.4321 H   0  0  0  0  0  0  0  0  0  0  0  0
   53.3276   78.3847   24.2952 H   0  0  0  0  0  0  0  0  0  0  0  0
   56.1058   81.5675   25.4589 H   0  0  0  0  0  0  0  0  0  0  0  0
   57.6500   80.9672   27.3049 H   0  0  0  0  0  0  0  0  0  0  0  0
   57.1680   78.1720   29.5060 H   0  0  0  0  0  0  0  0  0  0  0  0
   57.6185   79.7675   31.8243 H   0  0  0  0  0  0  0  0  0  0  0  0
   59.8460   83.4492   31.8534 H   0  0  0  0  0  0  0  0  0  0  0  0
   60.8169   84.4384   33.9206 H   0  0  0  0  0  0  0  0  0  0  0  0
   63.2563   82.4790   38.1083 H   0  0  0  0  0  0  0  0  0  0  0  0
   64.2210   83.5624   40.1352 H   0  0  0  0  0  0  0  0  0  0  0  0
   64.8369   85.9822   40.0787 H   0  0  0  0  0  0  0  0  0  0  0  0
   63.9910   88.0160   38.6730 H   0  0  0  0  0  0  0  0  0  0  0  0
   63.5262   86.2332   35.9709 H   0  0  0  0  0  0  0  0  0  0  0  0
   61.3753   80.4823   35.5538 H   0  0  0  0  0  0  0  0  0  0  0  0
   60.4067   79.4881   33.4869 H   0  0  0  0  0  0  0  0  0  0  0  0
   60.8890   81.4940   29.8130 H   0  0  0  0  0  0  0  0  0  0  0  0
   54.9005   77.9243   28.6270 H   0  0  0  0  0  0  0  0  0  0  0  0
   53.3552   78.5192   26.7800 H   0  0  0  0  0  0  0  0  0  0  0  0
   53.8443   82.5816   25.2071 H   0  0  0  0  0  0  0  0  0  0  0  0
   52.2958   83.1776   23.3467 H   0  0  0  0  0  0  0  0  0  0  0  0
  1  2  1  0
  2  3  2  0
  2  4  2  0
  2  5  1  0
  5  6  1  0
  6  7  2  0
  7  8  1  0
  8  9  1  0
  9 10  1  0
 10 11  2  0
 11 12  1  0
 12 13  1  0
 13 14  1  0
 14 15  1  0
 15 16  2  0
 16 17  1  0
 17 18  1  0
 18 19  2  0
 19 20  1  0
 20 21  1  0
 21 22  2  3
 22 23  1  0
 23 24  1  0
 24 25  2  0
 25 26  1  0
 26 27  2  0
 27 28  1  0
 27 29  1  0
 20 30  2  0
 30 31  1  0
 16 32  1  0
 32 33  1  0
 12 34  2  0
 34 35  1  0
  8 36  2  0
 36 37  1  0
 37  5  2  0
 35  9  2  0
 33 14  2  0
 31 17  2  0
 29 23  2  0
  1 38  1  0
  1 39  1  0
  6 40  1  0
  7 41  1  0
 10 42  1  0
 11 43  1  0
 13 44  1  0
 15 45  1  0
 18 46  1  0
 19 47  1  0
 24 48  1  0
 25 49  1  0
 26 50  1  0
 28 51  1  0
 29 52  1  0
 30 53  1  0
 31 54  1  0
 32 55  1  0
 34 56  1  0
 35 57  1  0
 36 58  1  0
 37 59  1  0
M  END
>  <meeko>  (1) 
{"is_sidechain": false}

>  <smiles>  (1) 
NS(=O)(=O)c1ccc(-c2ccc(Nc3cc(-c4ccc(N=Nc5cccc(O)c5)cc4)[nH]n3)cc2)cc1

>  <vina_score>  (1) 
-9.086

>  <job_id>  (1) 
f2f92fbf040d4fcc

$$$$
