
     RDKit          3D

 47 49  0  0  0  0  0  0  0  0999 V2000
   62.8960   86.1330   32.8900 C   0  0  0  0  0  0  0  0  0  0  0  0
   62.8010   84.7150   33.3930 C   0  0  0  0  0  0  0  0  0  0  0  0
   63.2900   84.4130   34.4820 O   0  0  0  0  0  0  0  0  0  0  0  0
   62.1300   83.7960   32.5850 N   0  0  0  0  0  0  0  0  0  0  0  0
   61.8880   84.0270   31.1610 C   0  0  0  0  0  0  0  0  0  0  0  0
   60.6770   83.2570   30.6450 C   0  0  0  0  0  0  0  0  0  0  0  0
   60.7760   81.7680   31.0050 C   0  0  0  0  0  0  0  0  0  0  0  0
   59.5910   80.9770   30.4790 C   0  0  0  0  0  0  0  0  0  0  0  0
   58.7730   80.2730   31.3700 C   0  0  0  0  0  0  0  0  0  0  0  0
   57.6770   79.5360   30.9070 C   0  0  0  0  0  0  0  0  0  0  0  0
   57.3640   79.4820   29.5410 C   0  0  0  0  0  0  0  0  0  0  0  0
   56.2100   78.7070   29.0530 C   0  0  0  0  0  0  0  0  0  0  0  0
   55.8960   77.4530   29.6060 C   0  0  0  0  0  0  0  0  0  0  0  0
   54.8040   76.7130   29.1450 C   0  0  0  0  0  0  0  0  0  0  0  0
   54.0050   77.2310   28.1250 C   0  0  0  0  0  0  0  0  0  0  0  0
   52.6250   76.2870   27.5370 S   0  0  0  0  0  0  0  0  0  0  0  0
   53.1150   74.7170   27.8980 N   0  0  0  0  0  0  0  0  0  0  0  0
   51.4910   76.5470   28.3950 O   0  0  0  0  0  0  0  0  0  0  0  0
   52.5600   76.4150   26.1010 O   0  0  0  0  0  0  0  0  0  0  0  0
   54.3000   78.4670   27.5490 C   0  0  0  0  0  0  0  0  0  0  0  0
   55.3950   79.1980   28.0170 C   0  0  0  0  0  0  0  0  0  0  0  0
   58.1880   80.1900   28.6530 C   0  0  0  0  0  0  0  0  0  0  0  0
   59.2850   80.9270   29.1130 C   0  0  0  0  0  0  0  0  0  0  0  0
   60.9460   81.6140   32.5220 C   0  0  0  0  0  0  0  0  0  0  0  0
   62.1590   82.3980   33.0140 C   0  0  0  0  0  0  0  0  0  0  0  0
   62.9422   86.8231   33.7453 H   0  0  0  0  0  0  0  0  0  0  0  0
   63.8037   86.2452   32.2788 H   0  0  0  0  0  0  0  0  0  0  0  0
   62.0114   86.3653   32.2788 H   0  0  0  0  0  0  0  0  0  0  0  0
   61.7174   85.1019   31.0014 H   0  0  0  0  0  0  0  0  0  0  0  0
   62.7710   83.6728   30.6088 H   0  0  0  0  0  0  0  0  0  0  0  0
   59.7655   83.6761   31.0962 H   0  0  0  0  0  0  0  0  0  0  0  0
   60.6436   83.3507   29.5495 H   0  0  0  0  0  0  0  0  0  0  0  0
   61.6639   81.3460   30.5115 H   0  0  0  0  0  0  0  0  0  0  0  0
   58.9941   80.2992   32.4472 H   0  0  0  0  0  0  0  0  0  0  0  0
   57.0502   78.9896   31.6271 H   0  0  0  0  0  0  0  0  0  0  0  0
   56.5207   77.0475   30.4155 H   0  0  0  0  0  0  0  0  0  0  0  0
   54.5760   75.7299   29.5827 H   0  0  0  0  0  0  0  0  0  0  0  0
   52.9670   74.4630   28.8730 H   0  0  0  0  0  0  0  0  0  0  0  0
   52.6460   74.0710   27.2600 H   0  0  0  0  0  0  0  0  0  0  0  0
   53.6762   78.8625   26.7338 H   0  0  0  0  0  0  0  0  0  0  0  0
   55.6239   80.1753   27.5670 H   0  0  0  0  0  0  0  0  0  0  0  0
   57.9676   80.1653   27.5756 H   0  0  0  0  0  0  0  0  0  0  0  0
   59.9137   81.4729   28.3942 H   0  0  0  0  0  0  0  0  0  0  0  0
   60.0441   81.9914   33.0261 H   0  0  0  0  0  0  0  0  0  0  0  0
   61.0970   80.5493   32.7534 H   0  0  0  0  0  0  0  0  0  0  0  0
   62.1783   82.3660   34.1134 H   0  0  0  0  0  0  0  0  0  0  0  0
   63.0572   81.9328   32.5818 H   0  0  0  0  0  0  0  0  0  0  0  0
  1  2  1  0
  2  3  2  0
  2  4  1  0
  4  5  1  0
  5  6  1  0
  6  7  1  0
  7  8  1  0
  8  9  1  0
  9 10  2  0
 10 11  1  0
 11 12  1  0
 12 13  1  0
 13 14  2  0
 14 15  1  0
 15 16  1  0
 16 17  1  0
 16 18  2  0
 16 19  2  0
 15 20  2  0
 20 21  1  0
 11 22  2  0
 22 23  1  0
  7 24  1  0
 24 25  1  0
 25  4  1  0
 23  8  2  0
 21 12  2  0
  1 26  1  0
  1 27  1  0
  1 28  1  0
  5 29  1  0
  5 30  1  0
  6 31  1  0
  6 32  1  0
  7 33  1  0
  9 34  1  0
 10 35  1  0
 13 36  1  0
 14 37  1  0
 17 38  1  0
 17 39  1  0
 20 40  1  0
 21 41  1  0
 22 42  1  0
 23 43  1  0
 24 44  1  0
 24 45  1  0
 25 46  1  0
 25 47  1  0
M  END
>  <meeko>  (1) 
{"is_sidechain": false}

>  <smiles>  (1) 
CC(=O)N1CCC(c2ccc(-c3ccc(S(N)(=O)=O)cc3)cc2)CC1

>  <vina_score>  (1) 
-7.920

>  <job_id>  (1) 
f2faf173c10b0bc4

$$$$
