
     RDKit          3D

 55 58  0  0  0  0  0  0  0  0999 V2000
   55.4940   81.7740   25.8150 C   0  0  0  0  0  0  0  0  0  0  0  0
   54.2670   81.0910   26.4320 C   0  0  0  0  0  0  0  0  0  0  0  0
   53.3100   82.1290   27.0160 C   0  0  0  0  0  0  0  0  0  0  0  0
   53.5760   80.2110   25.4990 N   0  0  0  0  0  0  0  0  0  0  0  0
   53.0440   80.5910   24.2990 C   0  0  0  0  0  0  0  0  0  0  0  0
   52.5730   79.5450   23.6670 N   0  0  0  0  0  0  0  0  0  0  0  0
   52.7670   78.4580   24.4780 N   0  0  0  0  0  0  0  0  0  0  0  0
   53.3360   78.8560   25.6070 C   0  0  0  0  0  0  0  0  0  0  0  0
   53.6410   77.9770   26.7380 C   0  0  0  0  0  0  0  0  0  0  0  0
   52.9350   76.7950   26.9210 C   0  0  0  0  0  0  0  0  0  0  0  0
   53.2370   76.0020   28.0200 C   0  0  0  0  0  0  0  0  0  0  0  0
   54.2260   76.4160   28.9080 C   0  0  0  0  0  0  0  0  0  0  0  0
   54.8820   77.6140   28.6660 C   0  0  0  0  0  0  0  0  0  0  0  0
   55.8760   78.1470   29.4890 N   0  0  0  0  0  0  0  0  0  0  0  0
   56.8180   79.1070   29.1900 C   0  0  0  0  0  0  0  0  0  0  0  0
   56.9010   79.6870   28.1150 O   0  0  0  0  0  0  0  0  0  0  0  0
   57.6480   79.3290   30.2660 N   0  0  0  0  0  0  0  0  0  0  0  0
   58.7040   80.2320   30.3790 C   0  0  0  0  0  0  0  0  0  0  0  0
   59.3620   80.8150   29.3120 C   0  0  0  0  0  0  0  0  0  0  0  0
   60.4070   81.7120   29.5670 C   0  0  0  0  0  0  0  0  0  0  0  0
   60.7970   82.0310   30.8700 C   0  0  0  0  0  0  0  0  0  0  0  0
   61.8280   82.9090   31.1490 N   0  0  0  0  0  0  0  0  0  0  0  0
   61.5630   84.3330   31.4240 C   0  0  0  0  0  0  0  0  0  0  0  0
   62.7630   85.2200   31.0190 C   0  0  0  0  0  0  0  0  0  0  0  0
   64.0540   84.8630   31.6290 N   0  0  0  0  0  0  0  0  0  0  0  0
   64.1390   83.4160   31.9040 C   0  0  0  0  0  0  0  0  0  0  0  0
   63.2420   82.5200   31.0190 C   0  0  0  0  0  0  0  0  0  0  0  0
   60.0580   81.3760   31.8600 C   0  0  0  0  0  0  0  0  0  0  0  0
   59.0350   80.5010   31.6550 N   0  0  0  0  0  0  0  0  0  0  0  0
   54.6020   78.3950   27.5990 N   0  0  0  0  0  0  0  0  0  0  0  0
   56.1518   82.1402   26.6170 H   0  0  0  0  0  0  0  0  0  0  0  0
   56.0419   81.0511   25.1928 H   0  0  0  0  0  0  0  0  0  0  0  0
   55.1682   82.6206   25.1928 H   0  0  0  0  0  0  0  0  0  0  0  0
   54.6374   80.4498   27.2454 H   0  0  0  0  0  0  0  0  0  0  0  0
   53.3490   82.0867   28.1145 H   0  0  0  0  0  0  0  0  0  0  0  0
   53.6063   83.1326   26.6770 H   0  0  0  0  0  0  0  0  0  0  0  0
   52.2857   81.9150   26.6770 H   0  0  0  0  0  0  0  0  0  0  0  0
   53.0155   81.6232   23.9198 H   0  0  0  0  0  0  0  0  0  0  0  0
   52.1523   76.4931   26.2095 H   0  0  0  0  0  0  0  0  0  0  0  0
   52.7004   75.0565   28.1873 H   0  0  0  0  0  0  0  0  0  0  0  0
   54.4825   75.8043   29.7855 H   0  0  0  0  0  0  0  0  0  0  0  0
   55.8320   77.7850   30.4270 H   0  0  0  0  0  0  0  0  0  0  0  0
   57.5630   78.7520   31.0860 H   0  0  0  0  0  0  0  0  0  0  0  0
   59.0693   80.5780   28.2785 H   0  0  0  0  0  0  0  0  0  0  0  0
   60.9336   82.1768   28.7204 H   0  0  0  0  0  0  0  0  0  0  0  0
   60.6766   84.6484   30.8540 H   0  0  0  0  0  0  0  0  0  0  0  0
   61.3952   84.4509   32.5047 H   0  0  0  0  0  0  0  0  0  0  0  0
   62.8763   85.1574   29.9266 H   0  0  0  0  0  0  0  0  0  0  0  0
   62.5269   86.2300   31.3853 H   0  0  0  0  0  0  0  0  0  0  0  0
   64.1680   85.3630   32.5100 H   0  0  0  0  0  0  0  0  0  0  0  0
   65.1831   83.1030   31.7559 H   0  0  0  0  0  0  0  0  0  0  0  0
   63.7797   83.2813   32.9349 H   0  0  0  0  0  0  0  0  0  0  0  0
   63.5505   82.6258   29.9684 H   0  0  0  0  0  0  0  0  0  0  0  0
   63.3530   81.4756   31.3461 H   0  0  0  0  0  0  0  0  0  0  0  0
   60.3291   81.5879   32.9048 H   0  0  0  0  0  0  0  0  0  0  0  0
  1  2  1  0
  2  3  1  0
  2  4  1  0
  4  5  1  0
  5  6  2  0
  6  7  1  0
  7  8  2  0
  8  9  1  0
  9 10  1  0
 10 11  2  0
 11 12  1  0
 12 13  2  0
 13 14  1  0
 14 15  1  0
 15 16  2  0
 15 17  1  0
 17 18  1  0
 18 19  2  0
 19 20  1  0
 20 21  2  0
 21 22  1  0
 22 23  1  0
 23 24  1  0
 24 25  1  0
 25 26  1  0
 26 27  1  0
 21 28  1  0
 28 29  2  0
 13 30  1  0
  8  4  1  0
 30  9  2  0
 29 18  1  0
 27 22  1  0
  1 31  1  0
  1 32  1  0
  1 33  1  0
  2 34  1  0
  3 35  1  0
  3 36  1  0
  3 37  1  0
  5 38  1  0
 10 39  1  0
 11 40  1  0
 12 41  1  0
 14 42  1  0
 17 43  1  0
 19 44  1  0
 20 45  1  0
 23 46  1  0
 23 47  1  0
 24 48  1  0
 24 49  1  0
 25 50  1  0
 26 51  1  0
 26 52  1  0
 27 53  1  0
 27 54  1  0
 28 55  1  0
M  END
>  <meeko>  (1) 
{"is_sidechain": false}

>  <smiles>  (1) 
CC(C)n1cnnc1-c1cccc(NC(=O)Nc2ccc(N3CCNCC3)cn2)n1

>  <vina_score>  (1) 
-9.045

>  <job_id>  (1) 
f2ff776c25652ca9

$$$$
