
     RDKit          3D

 39 40  0  0  0  0  0  0  0  0999 V2000
   58.6070   80.2820   30.9940 C   0  0  0  0  0  0  0  0  0  0  0  0
   58.2720   80.2120   29.5100 C   0  0  0  0  0  0  0  0  0  0  0  0
   57.3480   79.0470   29.0930 C   0  0  0  0  0  0  0  0  0  0  0  0
   56.6570   78.3950   30.2960 C   0  0  0  0  0  0  0  0  0  0  0  0
   56.4070   79.4420   27.9640 C   0  0  0  0  0  0  0  0  0  0  0  0
   55.2200   78.7170   27.7800 C   0  0  0  0  0  0  0  0  0  0  0  0
   54.3300   79.0370   26.7500 C   0  0  0  0  0  0  0  0  0  0  0  0
   54.5980   80.0900   25.8640 C   0  0  0  0  0  0  0  0  0  0  0  0
   53.6630   80.4290   24.7790 C   0  0  0  0  0  0  0  0  0  0  0  0
   53.1120   79.4260   23.9610 C   0  0  0  0  0  0  0  0  0  0  0  0
   52.2260   79.7430   22.9270 C   0  0  0  0  0  0  0  0  0  0  0  0
   51.8750   81.0760   22.7080 C   0  0  0  0  0  0  0  0  0  0  0  0
   50.7540   81.4760   21.3950 S   0  0  0  0  0  0  0  0  0  0  0  0
   49.2790   81.0100   22.0610 N   0  0  0  0  0  0  0  0  0  0  0  0
   51.0320   80.6090   20.2750 O   0  0  0  0  0  0  0  0  0  0  0  0
   50.6860   82.9150   21.2700 O   0  0  0  0  0  0  0  0  0  0  0  0
   52.4150   82.0930   23.4970 C   0  0  0  0  0  0  0  0  0  0  0  0
   53.3020   81.7650   24.5280 C   0  0  0  0  0  0  0  0  0  0  0  0
   55.7880   80.8110   26.0470 C   0  0  0  0  0  0  0  0  0  0  0  0
   56.6810   80.4910   27.0770 C   0  0  0  0  0  0  0  0  0  0  0  0
   57.6985   80.0922   31.5843 H   0  0  0  0  0  0  0  0  0  0  0  0
   59.3660   79.5230   31.2348 H   0  0  0  0  0  0  0  0  0  0  0  0
   58.9986   81.2814   31.2348 H   0  0  0  0  0  0  0  0  0  0  0  0
   57.7782   81.1539   29.2289 H   0  0  0  0  0  0  0  0  0  0  0  0
   59.2271   80.0413   28.9917 H   0  0  0  0  0  0  0  0  0  0  0  0
   57.9825   78.2536   28.6712 H   0  0  0  0  0  0  0  0  0  0  0  0
   57.0837   78.7976   31.2265 H   0  0  0  0  0  0  0  0  0  0  0  0
   55.5793   78.6130   30.2624 H   0  0  0  0  0  0  0  0  0  0  0  0
   56.8121   77.3065   30.2624 H   0  0  0  0  0  0  0  0  0  0  0  0
   54.9855   77.8827   28.4575 H   0  0  0  0  0  0  0  0  0  0  0  0
   53.4050   78.4533   26.6331 H   0  0  0  0  0  0  0  0  0  0  0  0
   53.3828   78.3746   24.1378 H   0  0  0  0  0  0  0  0  0  0  0  0
   51.8089   78.9482   22.2911 H   0  0  0  0  0  0  0  0  0  0  0  0
   49.1340   81.3620   23.0060 H   0  0  0  0  0  0  0  0  0  0  0  0
   48.5290   81.2940   21.4280 H   0  0  0  0  0  0  0  0  0  0  0  0
   52.1456   83.1429   23.3098 H   0  0  0  0  0  0  0  0  0  0  0  0
   53.7243   82.5657   25.1530 H   0  0  0  0  0  0  0  0  0  0  0  0
   56.0238   81.6437   25.3681 H   0  0  0  0  0  0  0  0  0  0  0  0
   57.6090   81.0705   27.1910 H   0  0  0  0  0  0  0  0  0  0  0  0
  1  2  1  0
  2  3  1  0
  3  4  1  0
  3  5  1  0
  5  6  1  0
  6  7  2  0
  7  8  1  0
  8  9  1  0
  9 10  1  0
 10 11  2  0
 11 12  1  0
 12 13  1  0
 13 14  1  0
 13 15  2  0
 13 16  2  0
 12 17  2  0
 17 18  1  0
  8 19  2  0
 19 20  1  0
 20  5  2  0
 18  9  2  0
  1 21  1  0
  1 22  1  0
  1 23  1  0
  2 24  1  0
  2 25  1  0
  3 26  1  0
  4 27  1  0
  4 28  1  0
  4 29  1  0
  6 30  1  0
  7 31  1  0
 10 32  1  0
 11 33  1  0
 14 34  1  0
 14 35  1  0
 17 36  1  0
 18 37  1  0
 19 38  1  0
 20 39  1  0
M  END
>  <meeko>  (1) 
{"is_sidechain": false}

>  <smiles>  (1) 
CCC(C)c1ccc(-c2ccc(S(N)(=O)=O)cc2)cc1

>  <vina_score>  (1) 
-7.853

>  <job_id>  (1) 
f31286800c68a866

$$$$
