
     RDKit          3D

 39 41  0  0  0  0  0  0  0  0999 V2000
   57.7630   79.3810   27.7360 O   0  0  0  0  0  0  0  0  0  0  0  0
   57.6260   79.4220   28.9520 C   0  0  0  0  0  0  0  0  0  0  0  0
   56.6710   78.7540   29.7000 N   0  0  0  0  0  0  0  0  0  0  0  0
   55.6160   77.9540   29.2150 C   0  0  0  0  0  0  0  0  0  0  0  0
   55.6320   76.5950   29.5680 C   0  0  0  0  0  0  0  0  0  0  0  0
   54.6210   75.7320   29.1340 C   0  0  0  0  0  0  0  0  0  0  0  0
   53.5890   76.2290   28.3490 C   0  0  0  0  0  0  0  0  0  0  0  0
   52.6200   75.4010   27.9360 F   0  0  0  0  0  0  0  0  0  0  0  0
   53.5630   77.5720   27.9990 C   0  0  0  0  0  0  0  0  0  0  0  0
   52.5610   78.0480   27.2460 F   0  0  0  0  0  0  0  0  0  0  0  0
   54.5680   78.4380   28.4270 C   0  0  0  0  0  0  0  0  0  0  0  0
   58.5930   80.2290   29.7480 C   0  0  0  0  0  0  0  0  0  0  0  0
   59.5450   81.0510   29.1450 C   0  0  0  0  0  0  0  0  0  0  0  0
   60.4340   81.7910   29.9390 C   0  0  0  0  0  0  0  0  0  0  0  0
   60.4130   81.7320   31.3430 C   0  0  0  0  0  0  0  0  0  0  0  0
   61.2920   82.4660   32.1160 N   0  0  0  0  0  0  0  0  0  0  0  0
   62.7020   82.6610   31.7400 C   0  0  0  0  0  0  0  0  0  0  0  0
   63.2410   83.9590   32.3650 C   0  0  0  0  0  0  0  0  0  0  0  0
   63.1730   83.9920   33.7970 O   0  0  0  0  0  0  0  0  0  0  0  0
   62.1010   83.2010   34.3310 C   0  0  0  0  0  0  0  0  0  0  0  0
   60.8860   83.0740   33.3960 C   0  0  0  0  0  0  0  0  0  0  0  0
   59.4540   80.8810   31.9170 C   0  0  0  0  0  0  0  0  0  0  0  0
   58.5600   80.1350   31.1380 C   0  0  0  0  0  0  0  0  0  0  0  0
   56.7810   78.7800   30.7050 H   0  0  0  0  0  0  0  0  0  0  0  0
   56.4489   76.2050   30.1929 H   0  0  0  0  0  0  0  0  0  0  0  0
   54.6430   74.6680   29.4122 H   0  0  0  0  0  0  0  0  0  0  0  0
   54.5363   79.5008   28.1450 H   0  0  0  0  0  0  0  0  0  0  0  0
   59.5987   81.1190   28.0484 H   0  0  0  0  0  0  0  0  0  0  0  0
   61.1728   82.4397   29.4457 H   0  0  0  0  0  0  0  0  0  0  0  0
   63.2962   81.8089   32.1018 H   0  0  0  0  0  0  0  0  0  0  0  0
   62.7762   82.7309   30.6447 H   0  0  0  0  0  0  0  0  0  0  0  0
   64.2933   84.0750   32.0665 H   0  0  0  0  0  0  0  0  0  0  0  0
   62.6025   84.7763   31.9984 H   0  0  0  0  0  0  0  0  0  0  0  0
   62.4860   82.1911   34.5357 H   0  0  0  0  0  0  0  0  0  0  0  0
   61.7500   83.7147   35.2381 H   0  0  0  0  0  0  0  0  0  0  0  0
   60.1240   82.4407   33.8739 H   0  0  0  0  0  0  0  0  0  0  0  0
   60.4740   84.0756   33.2037 H   0  0  0  0  0  0  0  0  0  0  0  0
   59.4034   80.7977   33.0127 H   0  0  0  0  0  0  0  0  0  0  0  0
   57.8293   79.4727   31.6253 H   0  0  0  0  0  0  0  0  0  0  0  0
  1  2  2  0
  2  3  1  0
  3  4  1  0
  4  5  1  0
  5  6  2  0
  6  7  1  0
  7  8  1  0
  7  9  2  0
  9 10  1  0
  9 11  1  0
  2 12  1  0
 12 13  1  0
 13 14  2  0
 14 15  1  0
 15 16  1  0
 16 17  1  0
 17 18  1  0
 18 19  1  0
 19 20  1  0
 20 21  1  0
 15 22  2  0
 22 23  1  0
 11  4  2  0
 23 12  2  0
 21 16  1  0
  3 24  1  0
  5 25  1  0
  6 26  1  0
 11 27  1  0
 13 28  1  0
 14 29  1  0
 17 30  1  0
 17 31  1  0
 18 32  1  0
 18 33  1  0
 20 34  1  0
 20 35  1  0
 21 36  1  0
 21 37  1  0
 22 38  1  0
 23 39  1  0
M  END
>  <meeko>  (1) 
{"is_sidechain": false}

>  <smiles>  (1) 
O=C(Nc1ccc(F)c(F)c1)c1ccc(N2CCOCC2)cc1

>  <vina_score>  (1) 
-8.150

>  <job_id>  (1) 
f31f7e9b16eca4e6

$$$$
