
     RDKit          3D

 41 43  0  0  0  0  0  0  0  0999 V2000
   55.6620   77.2120   29.8470 C   0  0  0  0  0  0  0  0  0  0  0  0
   55.3740   78.2190   28.7670 C   0  0  0  0  0  0  0  0  0  0  0  0
   54.0560   78.3620   28.3010 C   0  0  0  0  0  0  0  0  0  0  0  0
   53.7520   79.2660   27.2830 C   0  0  0  0  0  0  0  0  0  0  0  0
   54.7600   80.0350   26.7110 C   0  0  0  0  0  0  0  0  0  0  0  0
   56.0740   79.8970   27.1590 C   0  0  0  0  0  0  0  0  0  0  0  0
   56.3930   78.9990   28.1880 C   0  0  0  0  0  0  0  0  0  0  0  0
   57.7500   78.8740   28.5680 N   0  0  0  0  0  0  0  0  0  0  0  0
   58.4200   79.8000   29.3890 C   0  0  0  0  0  0  0  0  0  0  0  0
   58.1980   79.8570   30.7660 C   0  0  0  0  0  0  0  0  0  0  0  0
   58.9060   80.7790   31.5350 C   0  0  0  0  0  0  0  0  0  0  0  0
   59.8330   81.6030   30.9070 C   0  0  0  0  0  0  0  0  0  0  0  0
   60.6020   82.6180   31.6420 C   0  0  0  0  0  0  0  0  0  0  0  0
   61.6440   82.2530   32.1780 O   0  0  0  0  0  0  0  0  0  0  0  0
   60.1080   83.9160   31.7050 N   0  0  0  0  0  0  0  0  0  0  0  0
   58.7430   84.3100   31.3350 C   0  0  0  0  0  0  0  0  0  0  0  0
   58.5600   85.8300   31.3950 C   0  0  0  0  0  0  0  0  0  0  0  0
   58.8520   86.3840   32.6840 O   0  0  0  0  0  0  0  0  0  0  0  0
   59.9010   85.7040   33.3900 C   0  0  0  0  0  0  0  0  0  0  0  0
   60.8490   84.9150   32.4830 C   0  0  0  0  0  0  0  0  0  0  0  0
   59.9830   81.5030   29.5350 C   0  0  0  0  0  0  0  0  0  0  0  0
   59.3100   80.6070   28.7700 N   0  0  0  0  0  0  0  0  0  0  0  0
   55.5275   77.6824   30.8322 H   0  0  0  0  0  0  0  0  0  0  0  0
   54.9710   76.3617   29.7492 H   0  0  0  0  0  0  0  0  0  0  0  0
   56.6981   76.8556   29.7492 H   0  0  0  0  0  0  0  0  0  0  0  0
   53.2541   77.7535   28.7445 H   0  0  0  0  0  0  0  0  0  0  0  0
   52.7146   79.3707   26.9325 H   0  0  0  0  0  0  0  0  0  0  0  0
   54.5221   80.7490   25.9087 H   0  0  0  0  0  0  0  0  0  0  0  0
   56.8704   80.5005   26.6991 H   0  0  0  0  0  0  0  0  0  0  0  0
   58.3580   78.7920   27.7540 H   0  0  0  0  0  0  0  0  0  0  0  0
   57.4712   79.1807   31.2397 H   0  0  0  0  0  0  0  0  0  0  0  0
   58.7344   80.8533   32.6190 H   0  0  0  0  0  0  0  0  0  0  0  0
   58.5371   83.9656   30.3108 H   0  0  0  0  0  0  0  0  0  0  0  0
   58.0457   83.8505   32.0510 H   0  0  0  0  0  0  0  0  0  0  0  0
   59.2308   86.2922   30.6559 H   0  0  0  0  0  0  0  0  0  0  0  0
   57.5016   86.0402   31.1814 H   0  0  0  0  0  0  0  0  0  0  0  0
   60.4905   86.4527   33.9395 H   0  0  0  0  0  0  0  0  0  0  0  0
   59.4169   84.9753   34.0568 H   0  0  0  0  0  0  0  0  0  0  0  0
   61.3515   85.6097   31.7939 H   0  0  0  0  0  0  0  0  0  0  0  0
   61.5902   84.3975   33.1097 H   0  0  0  0  0  0  0  0  0  0  0  0
   60.6861   82.1872   29.0375 H   0  0  0  0  0  0  0  0  0  0  0  0
  1  2  1  0
  2  3  2  0
  3  4  1  0
  4  5  2  0
  5  6  1  0
  6  7  2  0
  7  8  1  0
  8  9  1  0
  9 10  2  0
 10 11  1  0
 11 12  2  0
 12 13  1  0
 13 14  2  0
 13 15  1  0
 15 16  1  0
 16 17  1  0
 17 18  1  0
 18 19  1  0
 19 20  1  0
 12 21  1  0
 21 22  2  0
  7  2  1  0
 22  9  1  0
 20 15  1  0
  1 23  1  0
  1 24  1  0
  1 25  1  0
  3 26  1  0
  4 27  1  0
  5 28  1  0
  6 29  1  0
  8 30  1  0
 10 31  1  0
 11 32  1  0
 16 33  1  0
 16 34  1  0
 17 35  1  0
 17 36  1  0
 19 37  1  0
 19 38  1  0
 20 39  1  0
 20 40  1  0
 21 41  1  0
M  END
>  <meeko>  (1) 
{"is_sidechain": false}

>  <smiles>  (1) 
Cc1ccccc1Nc1ccc(C(=O)N2CCOCC2)cn1

>  <vina_score>  (1) 
-7.941

>  <job_id>  (1) 
f39f681967ca7221

$$$$
