
     RDKit          3D

 62 63  0  0  0  0  0  0  0  0999 V2000
   53.6880   78.7310   24.3300 C   0  0  0  0  0  0  0  0  0  0  0  0
   53.0240   79.7680   25.2540 C   0  0  2  0  0  0  0  0  0  0  0  0
   52.4880   80.9830   24.4590 C   0  0  1  0  0  0  0  0  0  0  0  0
   52.9010   81.0200   22.9910 C   0  0  0  0  0  0  0  0  0  0  0  0
   51.0600   80.9820   24.5270 O   0  0  0  0  0  0  0  0  0  0  0  0
   53.9730   80.1540   26.4180 C   0  0  1  0  0  0  0  0  0  0  0  0
   53.8180   81.6150   26.8460 C   0  0  0  0  0  0  0  0  0  0  0  0
   53.6210   79.3770   27.5780 O   0  0  0  0  0  0  0  0  0  0  0  0
   54.5880   78.5420   28.0950 C   0  0  0  0  0  0  0  0  0  0  0  0
   55.8210   79.0270   28.3300 N   0  0  0  0  0  0  0  0  0  0  0  0
   56.7460   78.1780   28.7980 C   0  0  0  0  0  0  0  0  0  0  0  0
   58.0020   78.7350   29.0120 N   0  0  0  0  0  0  0  0  0  0  0  0
   58.4670   79.8280   29.7510 C   0  0  0  0  0  0  0  0  0  0  0  0
   58.1810   80.0330   31.1070 C   0  0  0  0  0  0  0  0  0  0  0  0
   58.6990   81.1310   31.8020 C   0  0  0  0  0  0  0  0  0  0  0  0
   59.5330   82.0330   31.1420 C   0  0  0  0  0  0  0  0  0  0  0  0
   60.1850   83.4240   32.0390 S   0  0  0  0  0  0  0  0  0  0  0  0
   59.0980   83.8730   32.8900 O   0  0  0  0  0  0  0  0  0  0  0  0
   60.7880   84.3470   31.0990 O   0  0  0  0  0  0  0  0  0  0  0  0
   61.3470   82.8510   33.0240 O   0  0  0  0  0  0  0  0  0  0  0  0
   62.2130   81.7640   32.6890 C   0  0  2  0  0  0  0  0  0  0  0  0
   62.6250   81.1710   34.0370 C   0  0  0  0  0  0  0  0  0  0  0  0
   63.4130   82.2230   31.8290 C   0  0  1  0  0  0  0  0  0  0  0  0
   64.7760   82.1080   32.5040 C   0  0  0  0  0  0  0  0  0  0  0  0
   63.4610   81.4180   30.6440 O   0  0  0  0  0  0  0  0  0  0  0  0
   59.8290   81.8620   29.7920 C   0  0  0  0  0  0  0  0  0  0  0  0
   59.3040   80.7610   29.1100 C   0  0  0  0  0  0  0  0  0  0  0  0
   56.4910   76.8840   29.0280 N   0  0  0  0  0  0  0  0  0  0  0  0
   55.2450   76.4370   28.7710 C   0  0  0  0  0  0  0  0  0  0  0  0
   54.2370   77.2330   28.2920 C   0  0  0  0  0  0  0  0  0  0  0  0
   52.8770   76.7140   28.0120 C   0  0  0  0  0  0  0  0  0  0  0  0
   51.9020   77.4160   28.6610 F   0  0  0  0  0  0  0  0  0  0  0  0
   52.7040   75.4210   28.3970 F   0  0  0  0  0  0  0  0  0  0  0  0
   52.5410   76.7710   26.6940 F   0  0  0  0  0  0  0  0  0  0  0  0
   54.1818   77.9598   24.9394 H   0  0  0  0  0  0  0  0  0  0  0  0
   52.9219   78.2618   23.6952 H   0  0  0  0  0  0  0  0  0  0  0  0
   54.4347   79.2304   23.6952 H   0  0  0  0  0  0  0  0  0  0  0  0
   52.1372   79.3096   25.7161 H   0  0  0  0  0  0  0  0  0  0  0  0
   52.9341   81.8726   24.9276 H   0  0  0  0  0  0  0  0  0  0  0  0
   53.9943   81.1179   22.9201 H   0  0  0  0  0  0  0  0  0  0  0  0
   52.5834   80.0898   22.4972 H   0  0  0  0  0  0  0  0  0  0  0  0
   52.4231   81.8789   22.4972 H   0  0  0  0  0  0  0  0  0  0  0  0
   50.7300   80.3680   23.8480 H   0  0  0  0  0  0  0  0  0  0  0  0
   54.9978   79.9762   26.0599 H   0  0  0  0  0  0  0  0  0  0  0  0
   53.8115   81.6766   27.9443 H   0  0  0  0  0  0  0  0  0  0  0  0
   54.6587   82.2040   26.4507 H   0  0  0  0  0  0  0  0  0  0  0  0
   52.8724   82.0145   26.4507 H   0  0  0  0  0  0  0  0  0  0  0  0
   58.6770   78.2540   28.4350 H   0  0  0  0  0  0  0  0  0  0  0  0
   57.5360   79.3160   31.6360 H   0  0  0  0  0  0  0  0  0  0  0  0
   58.4500   81.2820   32.8627 H   0  0  0  0  0  0  0  0  0  0  0  0
   61.7179   81.0103   32.0590 H   0  0  0  0  0  0  0  0  0  0  0  0
   62.2022   81.7796   34.8499 H   0  0  0  0  0  0  0  0  0  0  0  0
   62.2470   80.1410   34.1154 H   0  0  0  0  0  0  0  0  0  0  0  0
   63.7222   81.1659   34.1154 H   0  0  0  0  0  0  0  0  0  0  0  0
   63.2404   83.2914   31.6322 H   0  0  0  0  0  0  0  0  0  0  0  0
   64.6463   82.1189   33.5963 H   0  0  0  0  0  0  0  0  0  0  0  0
   65.2568   81.1661   32.2013 H   0  0  0  0  0  0  0  0  0  0  0  0
   65.4078   82.9560   32.2013 H   0  0  0  0  0  0  0  0  0  0  0  0
   63.1840   81.9600   29.8860 H   0  0  0  0  0  0  0  0  0  0  0  0
   60.4697   82.5863   29.2677 H   0  0  0  0  0  0  0  0  0  0  0  0
   59.5506   80.6201   28.0473 H   0  0  0  0  0  0  0  0  0  0  0  0
   55.0254   75.3751   28.9559 H   0  0  0  0  0  0  0  0  0  0  0  0
  1  2  1  0
  2  3  1  0
  3  4  1  0
  3  5  1  0
  2  6  1  0
  6  7  1  0
  6  8  1  0
  8  9  1  0
  9 10  2  0
 10 11  1  0
 11 12  1  0
 12 13  1  0
 13 14  1  0
 14 15  2  0
 15 16  1  0
 16 17  1  0
 17 18  2  0
 17 19  2  0
 17 20  1  0
 20 21  1  0
 21 22  1  0
 21 23  1  0
 23 24  1  0
 23 25  1  0
 16 26  2  0
 26 27  1  0
 11 28  2  0
 28 29  1  0
 29 30  2  0
 30 31  1  0
 31 32  1  0
 31 33  1  0
 31 34  1  0
 30  9  1  0
 27 13  2  0
  1 35  1  0
  1 36  1  0
  1 37  1  0
  2 38  1  1
  3 39  1  1
  4 40  1  0
  4 41  1  0
  4 42  1  0
  5 43  1  0
  6 44  1  6
  7 45  1  0
  7 46  1  0
  7 47  1  0
 12 48  1  0
 14 49  1  0
 15 50  1  0
 21 51  1  6
 22 52  1  0
 22 53  1  0
 22 54  1  0
 23 55  1  6
 24 56  1  0
 24 57  1  0
 24 58  1  0
 25 59  1  0
 26 60  1  0
 27 61  1  0
 29 62  1  0
M  END
>  <meeko>  (1) 
{"is_sidechain": false}

>  <smiles>  (1) 
C[C@H]([C@@H](C)O)[C@@H](C)Oc1nc(Nc2ccc(S(=O)(=O)O[C@H](C)[C@@H](C)O)cc2)ncc1C(F)(F)F

>  <vina_score>  (1) 
-8.254

>  <job_id>  (1) 
f3e7a8881f9a01b9

$$$$
