
     RDKit          3D

 54 57  0  0  0  0  0  0  0  0999 V2000
   51.6720   81.3160   24.4450 C   0  0  0  0  0  0  0  0  0  0  0  0
   52.9800   80.6860   24.2910 N   0  0  0  0  0  0  0  0  0  0  0  0
   52.9640   79.3140   24.8520 C   0  0  0  0  0  0  0  0  0  0  0  0
   54.3580   78.7810   25.2580 C   0  0  0  0  0  0  0  0  0  0  0  0
   54.9690   79.6550   26.2620 N   0  0  0  0  0  0  0  0  0  0  0  0
   55.4130   79.1090   27.4490 C   0  0  0  0  0  0  0  0  0  0  0  0
   54.8400   77.9870   27.9070 N   0  0  0  0  0  0  0  0  0  0  0  0
   55.3140   77.4660   29.0510 C   0  0  0  0  0  0  0  0  0  0  0  0
   56.3390   78.0220   29.7700 C   0  0  0  0  0  0  0  0  0  0  0  0
   56.8820   79.1760   29.2500 C   0  0  0  0  0  0  0  0  0  0  0  0
   57.9960   79.9030   29.8940 C   0  0  0  0  0  0  0  0  0  0  0  0
   58.9210   80.6630   29.1650 C   0  0  0  0  0  0  0  0  0  0  0  0
   59.9680   81.3510   29.8020 C   0  0  0  0  0  0  0  0  0  0  0  0
   60.1490   81.3090   31.1910 C   0  0  0  0  0  0  0  0  0  0  0  0
   61.1830   81.9930   31.8260 N   0  0  0  0  0  0  0  0  0  0  0  0
   61.5810   83.3040   31.3070 C   0  0  0  0  0  0  0  0  0  0  0  0
   63.0810   83.4220   30.9690 C   0  0  0  0  0  0  0  0  0  0  0  0
   63.8250   82.0980   31.1210 C   0  0  0  0  0  0  0  0  0  0  0  0
   64.1600   81.7360   32.4950 N   0  0  0  0  0  0  0  0  0  0  0  0
   63.1010   82.0660   33.4550 C   0  0  0  0  0  0  0  0  0  0  0  0
   61.7140   81.4920   33.1000 C   0  0  0  0  0  0  0  0  0  0  0  0
   59.2270   80.5400   31.9140 C   0  0  0  0  0  0  0  0  0  0  0  0
   58.1780   79.8520   31.2840 C   0  0  0  0  0  0  0  0  0  0  0  0
   56.4280   79.7100   28.0930 N   0  0  0  0  0  0  0  0  0  0  0  0
   54.5300   81.0520   26.2920 C   0  0  0  0  0  0  0  0  0  0  0  0
   54.0580   81.5040   24.8910 C   0  0  0  0  0  0  0  0  0  0  0  0
   51.4421   81.4268   25.5150 H   0  0  0  0  0  0  0  0  0  0  0  0
   51.6840   82.3071   23.9680 H   0  0  0  0  0  0  0  0  0  0  0  0
   50.9045   80.6888   23.9680 H   0  0  0  0  0  0  0  0  0  0  0  0
   52.3207   79.3132   25.7442 H   0  0  0  0  0  0  0  0  0  0  0  0
   52.5901   78.6511   24.0578 H   0  0  0  0  0  0  0  0  0  0  0  0
   54.2510   77.7691   25.6759 H   0  0  0  0  0  0  0  0  0  0  0  0
   55.0030   78.7572   24.3673 H   0  0  0  0  0  0  0  0  0  0  0  0
   54.8537   76.5421   29.4313 H   0  0  0  0  0  0  0  0  0  0  0  0
   56.7059   77.5742   30.7053 H   0  0  0  0  0  0  0  0  0  0  0  0
   58.8254   80.7222   28.0708 H   0  0  0  0  0  0  0  0  0  0  0  0
   60.6672   81.9409   29.1912 H   0  0  0  0  0  0  0  0  0  0  0  0
   61.0046   83.5018   30.3913 H   0  0  0  0  0  0  0  0  0  0  0  0
   61.3786   84.0341   32.1045 H   0  0  0  0  0  0  0  0  0  0  0  0
   63.1814   83.7646   29.9286 H   0  0  0  0  0  0  0  0  0  0  0  0
   63.5260   84.1364   31.6773 H   0  0  0  0  0  0  0  0  0  0  0  0
   63.1934   81.3009   30.7018 H   0  0  0  0  0  0  0  0  0  0  0  0
   64.7816   82.2189   30.5916 H   0  0  0  0  0  0  0  0  0  0  0  0
   64.3290   80.7300   32.5300 H   0  0  0  0  0  0  0  0  0  0  0  0
   63.3944   81.6717   34.4391 H   0  0  0  0  0  0  0  0  0  0  0  0
   62.9986   83.1612   33.4435 H   0  0  0  0  0  0  0  0  0  0  0  0
   61.7959   80.3969   33.0368 H   0  0  0  0  0  0  0  0  0  0  0  0
   61.0186   81.8127   33.8896 H   0  0  0  0  0  0  0  0  0  0  0  0
   59.3283   80.4736   33.0073 H   0  0  0  0  0  0  0  0  0  0  0  0
   57.4820   79.2586   31.8950 H   0  0  0  0  0  0  0  0  0  0  0  0
   53.6980   81.1543   27.0043 H   0  0  0  0  0  0  0  0  0  0  0  0
   55.3759   81.6831   26.6020 H   0  0  0  0  0  0  0  0  0  0  0  0
   53.6937   82.5387   24.9728 H   0  0  0  0  0  0  0  0  0  0  0  0
   54.9282   81.3936   24.2272 H   0  0  0  0  0  0  0  0  0  0  0  0
  1  2  1  0
  2  3  1  0
  3  4  1  0
  4  5  1  0
  5  6  1  0
  6  7  2  0
  7  8  1  0
  8  9  2  0
  9 10  1  0
 10 11  1  0
 11 12  1  0
 12 13  2  0
 13 14  1  0
 14 15  1  0
 15 16  1  0
 16 17  1  0
 17 18  1  0
 18 19  1  0
 19 20  1  0
 20 21  1  0
 14 22  2  0
 22 23  1  0
 10 24  2  0
  5 25  1  0
 25 26  1  0
 26  2  1  0
 24  6  1  0
 23 11  2  0
 21 15  1  0
  1 27  1  0
  1 28  1  0
  1 29  1  0
  3 30  1  0
  3 31  1  0
  4 32  1  0
  4 33  1  0
  8 34  1  0
  9 35  1  0
 12 36  1  0
 13 37  1  0
 16 38  1  0
 16 39  1  0
 17 40  1  0
 17 41  1  0
 18 42  1  0
 18 43  1  0
 19 44  1  0
 20 45  1  0
 20 46  1  0
 21 47  1  0
 21 48  1  0
 22 49  1  0
 23 50  1  0
 25 51  1  0
 25 52  1  0
 26 53  1  0
 26 54  1  0
M  END
>  <meeko>  (1) 
{"is_sidechain": false}

>  <smiles>  (1) 
CN1CCN(c2nccc(-c3ccc(N4CCCNCC4)cc3)n2)CC1

>  <vina_score>  (1) 
-5.673

>  <job_id>  (1) 
f40fd6e30a6284ac

$$$$
