
     RDKit          3D

 50 52  0  0  0  0  0  0  0  0999 V2000
   52.9510   77.4840   28.0120 C   0  0  0  0  0  0  0  0  0  0  0  0
   54.2350   77.4340   28.4070 C   0  0  0  0  0  0  0  0  0  0  0  0
   54.8100   76.2590   29.1450 C   0  0  0  0  0  0  0  0  0  0  0  0
   55.1540   78.5540   28.0930 C   0  0  0  0  0  0  0  0  0  0  0  0
   56.2600   78.7320   28.9390 C   0  0  0  0  0  0  0  0  0  0  0  0
   57.1710   79.7600   28.7070 C   0  0  0  0  0  0  0  0  0  0  0  0
   58.3350   79.9000   29.6240 C   0  0  0  0  0  0  0  0  0  0  0  0
   59.3070   79.1820   29.4380 O   0  0  0  0  0  0  0  0  0  0  0  0
   58.1860   80.8810   30.5880 N   0  0  0  0  0  0  0  0  0  0  0  0
   59.0940   81.2120   31.6160 C   0  0  0  0  0  0  0  0  0  0  0  0
   60.3680   81.7370   31.3950 C   0  0  0  0  0  0  0  0  0  0  0  0
   61.2100   82.0310   32.4710 C   0  0  0  0  0  0  0  0  0  0  0  0
   60.7870   81.8020   33.7780 C   0  0  0  0  0  0  0  0  0  0  0  0
   59.5200   81.2770   34.0110 C   0  0  0  0  0  0  0  0  0  0  0  0
   58.6780   80.9820   32.9350 C   0  0  0  0  0  0  0  0  0  0  0  0
   56.9770   80.6470   27.6450 C   0  0  0  0  0  0  0  0  0  0  0  0
   55.8770   80.4960   26.7910 C   0  0  0  0  0  0  0  0  0  0  0  0
   55.6610   81.3040   25.6990 O   0  0  0  0  0  0  0  0  0  0  0  0
   55.5600   82.7050   25.9140 C   0  0  0  0  0  0  0  0  0  0  0  0
   54.9420   79.4440   27.0030 C   0  0  0  0  0  0  0  0  0  0  0  0
   53.8380   79.2180   26.1520 N   0  0  0  0  0  0  0  0  0  0  0  0
   52.7380   80.2040   26.1690 C   0  0  0  0  0  0  0  0  0  0  0  0
   52.5010   80.8190   24.7790 C   0  0  0  0  0  0  0  0  0  0  0  0
   52.2450   79.8480   23.7520 O   0  0  0  0  0  0  0  0  0  0  0  0
   52.9760   78.6230   23.9330 C   0  0  0  0  0  0  0  0  0  0  0  0
   54.2340   78.7710   24.8040 C   0  0  0  0  0  0  0  0  0  0  0  0
   52.5751   78.3666   27.4738 H   0  0  0  0  0  0  0  0  0  0  0  0
   52.2762   76.6423   28.2270 H   0  0  0  0  0  0  0  0  0  0  0  0
   54.7264   76.4299   30.2284 H   0  0  0  0  0  0  0  0  0  0  0  0
   54.2556   75.3485   28.8735 H   0  0  0  0  0  0  0  0  0  0  0  0
   55.8691   76.1381   28.8735 H   0  0  0  0  0  0  0  0  0  0  0  0
   56.4085   78.0540   29.7924 H   0  0  0  0  0  0  0  0  0  0  0  0
   57.3740   81.4780   30.5140 H   0  0  0  0  0  0  0  0  0  0  0  0
   60.7120   81.9207   30.3664 H   0  0  0  0  0  0  0  0  0  0  0  0
   62.2118   82.4453   32.2847 H   0  0  0  0  0  0  0  0  0  0  0  0
   61.4520   82.0353   34.6226 H   0  0  0  0  0  0  0  0  0  0  0  0
   59.1810   81.0941   35.0414 H   0  0  0  0  0  0  0  0  0  0  0  0
   57.6781   80.5649   33.1251 H   0  0  0  0  0  0  0  0  0  0  0  0
   57.6909   81.4672   27.4789 H   0  0  0  0  0  0  0  0  0  0  0  0
   55.5452   82.9100   26.9946 H   0  0  0  0  0  0  0  0  0  0  0  0
   56.4241   83.2093   25.4569 H   0  0  0  0  0  0  0  0  0  0  0  0
   54.6325   83.0802   25.4569 H   0  0  0  0  0  0  0  0  0  0  0  0
   51.8158   79.7031   26.4987 H   0  0  0  0  0  0  0  0  0  0  0  0
   53.0158   81.0145   26.8588 H   0  0  0  0  0  0  0  0  0  0  0  0
   51.6350   81.4943   24.8415 H   0  0  0  0  0  0  0  0  0  0  0  0
   53.4256   81.3452   24.4994 H   0  0  0  0  0  0  0  0  0  0  0  0
   52.3094   77.8891   24.4094 H   0  0  0  0  0  0  0  0  0  0  0  0
   53.3137   78.3025   22.9364 H   0  0  0  0  0  0  0  0  0  0  0  0
   54.7496   77.8018   24.8740 H   0  0  0  0  0  0  0  0  0  0  0  0
   54.9121   79.5104   24.3528 H   0  0  0  0  0  0  0  0  0  0  0  0
  1  2  2  0
  2  3  1  0
  2  4  1  0
  4  5  1  0
  5  6  2  0
  6  7  1  0
  7  8  2  0
  7  9  1  0
  9 10  1  0
 10 11  2  0
 11 12  1  0
 12 13  2  0
 13 14  1  0
 14 15  2  0
  6 16  1  0
 16 17  2  0
 17 18  1  0
 18 19  1  0
 17 20  1  0
 20 21  1  0
 21 22  1  0
 22 23  1  0
 23 24  1  0
 24 25  1  0
 25 26  1  0
 20  4  2  0
 26 21  1  0
 15 10  1  0
  1 27  1  0
  1 28  1  0
  3 29  1  0
  3 30  1  0
  3 31  1  0
  5 32  1  0
  9 33  1  0
 11 34  1  0
 12 35  1  0
 13 36  1  0
 14 37  1  0
 15 38  1  0
 16 39  1  0
 19 40  1  0
 19 41  1  0
 19 42  1  0
 22 43  1  0
 22 44  1  0
 23 45  1  0
 23 46  1  0
 25 47  1  0
 25 48  1  0
 26 49  1  0
 26 50  1  0
M  END
>  <meeko>  (1) 
{"is_sidechain": false}

>  <smiles>  (1) 
C=C(C)c1cc(C(=O)Nc2ccccc2)cc(OC)c1N1CCOCC1

>  <vina_score>  (1) 
-8.056

>  <job_id>  (1) 
f455660797edb643

$$$$
