
     RDKit          3D

 41 43  0  0  0  0  0  0  0  0999 V2000
   53.1060   82.9490   26.3260 O   0  0  0  0  0  0  0  0  0  0  0  0
   53.4720   81.9090   25.7840 C   0  0  0  0  0  0  0  0  0  0  0  0
   54.3510   80.9930   26.5440 C   0  0  0  0  0  0  0  0  0  0  0  0
   53.8140   79.9720   27.3350 C   0  0  0  0  0  0  0  0  0  0  0  0
   54.6680   79.1070   28.0250 C   0  0  0  0  0  0  0  0  0  0  0  0
   56.0600   79.2440   27.9140 C   0  0  0  0  0  0  0  0  0  0  0  0
   56.9900   78.3170   28.6650 C   0  0  0  0  0  0  0  0  0  0  0  0
   58.3410   78.8590   28.6220 N   0  0  0  0  0  0  0  0  0  0  0  0
   58.7150   79.8670   29.5120 C   0  0  0  0  0  0  0  0  0  0  0  0
   59.4820   80.9810   29.1450 C   0  0  0  0  0  0  0  0  0  0  0  0
   59.7670   81.9990   30.0630 C   0  0  0  0  0  0  0  0  0  0  0  0
   59.2620   81.9270   31.3570 C   0  0  0  0  0  0  0  0  0  0  0  0
   59.6100   83.1780   32.4860 Cl  0  0  0  0  0  0  0  0  0  0  0  0
   58.4640   80.8530   31.7350 C   0  0  0  0  0  0  0  0  0  0  0  0
   58.1850   79.8410   30.8110 C   0  0  0  0  0  0  0  0  0  0  0  0
   56.5850   80.2660   27.1070 C   0  0  0  0  0  0  0  0  0  0  0  0
   55.7350   81.1300   26.4140 C   0  0  0  0  0  0  0  0  0  0  0  0
   53.0890   81.5450   24.5070 N   0  0  0  0  0  0  0  0  0  0  0  0
   53.2300   80.2360   23.8820 C   0  0  0  0  0  0  0  0  0  0  0  0
   52.1860   80.2330   22.7710 C   0  0  0  0  0  0  0  0  0  0  0  0
   52.0930   81.7050   22.3870 C   0  0  0  0  0  0  0  0  0  0  0  0
   52.2170   82.4070   23.7290 C   0  0  0  0  0  0  0  0  0  0  0  0
   52.7236   79.8503   27.4137 H   0  0  0  0  0  0  0  0  0  0  0  0
   54.2460   78.3135   28.6593 H   0  0  0  0  0  0  0  0  0  0  0  0
   56.6602   78.2326   29.7110 H   0  0  0  0  0  0  0  0  0  0  0  0
   56.9757   77.3207   28.1989 H   0  0  0  0  0  0  0  0  0  0  0  0
   58.6550   79.0440   27.6730 H   0  0  0  0  0  0  0  0  0  0  0  0
   59.8670   81.0570   28.1174 H   0  0  0  0  0  0  0  0  0  0  0  0
   60.3893   82.8544   29.7613 H   0  0  0  0  0  0  0  0  0  0  0  0
   58.0546   80.7996   32.7546 H   0  0  0  0  0  0  0  0  0  0  0  0
   57.5350   79.0053   31.1094 H   0  0  0  0  0  0  0  0  0  0  0  0
   57.6749   80.3869   27.0201 H   0  0  0  0  0  0  0  0  0  0  0  0
   56.1537   81.9157   25.7680 H   0  0  0  0  0  0  0  0  0  0  0  0
   54.2408   80.1095   23.4669 H   0  0  0  0  0  0  0  0  0  0  0  0
   53.0851   79.4121   24.5963 H   0  0  0  0  0  0  0  0  0  0  0  0
   52.5171   79.6218   21.9185 H   0  0  0  0  0  0  0  0  0  0  0  0
   51.2222   79.8035   23.0818 H   0  0  0  0  0  0  0  0  0  0  0  0
   52.9127   81.9917   21.7118 H   0  0  0  0  0  0  0  0  0  0  0  0
   51.1698   81.9579   21.8450 H   0  0  0  0  0  0  0  0  0  0  0  0
   52.6638   83.4047   23.6068 H   0  0  0  0  0  0  0  0  0  0  0  0
   51.2415   82.5637   24.2125 H   0  0  0  0  0  0  0  0  0  0  0  0
  1  2  2  0
  2  3  1  0
  3  4  1  0
  4  5  2  0
  5  6  1  0
  6  7  1  0
  7  8  1  0
  8  9  1  0
  9 10  1  0
 10 11  2  0
 11 12  1  0
 12 13  1  0
 12 14  2  0
 14 15  1  0
  6 16  2  0
 16 17  1  0
  2 18  1  0
 18 19  1  0
 19 20  1  0
 20 21  1  0
 21 22  1  0
 17  3  2  0
 22 18  1  0
 15  9  2  0
  4 23  1  0
  5 24  1  0
  7 25  1  0
  7 26  1  0
  8 27  1  0
 10 28  1  0
 11 29  1  0
 14 30  1  0
 15 31  1  0
 16 32  1  0
 17 33  1  0
 19 34  1  0
 19 35  1  0
 20 36  1  0
 20 37  1  0
 21 38  1  0
 21 39  1  0
 22 40  1  0
 22 41  1  0
M  END
>  <meeko>  (1) 
{"is_sidechain": false}

>  <smiles>  (1) 
O=C(c1ccc(CNc2ccc(Cl)cc2)cc1)N1CCCC1

>  <vina_score>  (1) 
-8.056

>  <job_id>  (1) 
f4ac44b9d2c14cd7

$$$$
