
     RDKit          3D

 40 42  0  0  0  0  0  0  0  0999 V2000
   52.7150   77.6360   28.0150 C   0  0  0  0  0  0  0  0  0  0  0  0
   53.9170   77.9850   27.1250 C   0  0  0  0  0  0  0  0  0  0  0  0
   55.1470   78.4940   27.8690 C   0  0  0  0  0  0  0  0  0  0  0  0
   55.4400   77.9710   29.1370 C   0  0  0  0  0  0  0  0  0  0  0  0
   56.5650   78.3980   29.8530 C   0  0  0  0  0  0  0  0  0  0  0  0
   57.4480   79.3620   29.3400 C   0  0  0  0  0  0  0  0  0  0  0  0
   58.6790   79.8570   30.0790 C   0  0  0  0  0  0  0  0  0  0  0  0
   59.0040   81.3290   30.1630 C   0  0  0  0  0  0  0  0  0  0  0  0
   58.5610   80.5900   31.3940 C   0  0  0  0  0  0  0  0  0  0  0  0
   57.1440   79.8720   28.0680 C   0  0  0  0  0  0  0  0  0  0  0  0
   56.0210   79.4510   27.3430 C   0  0  0  0  0  0  0  0  0  0  0  0
   53.4860   78.9280   26.0030 C   0  0  0  0  0  0  0  0  0  0  0  0
   52.8870   80.1680   26.2830 C   0  0  0  0  0  0  0  0  0  0  0  0
   52.4950   81.0200   25.2490 C   0  0  0  0  0  0  0  0  0  0  0  0
   52.7100   80.6350   23.9240 C   0  0  0  0  0  0  0  0  0  0  0  0
   52.2160   81.7250   22.6180 S   0  0  0  0  0  0  0  0  0  0  0  0
   50.6020   81.2880   22.4090 N   0  0  0  0  0  0  0  0  0  0  0  0
   52.1850   83.0770   23.1300 O   0  0  0  0  0  0  0  0  0  0  0  0
   52.9370   81.3630   21.4210 O   0  0  0  0  0  0  0  0  0  0  0  0
   53.2910   79.4020   23.6230 C   0  0  0  0  0  0  0  0  0  0  0  0
   53.6790   78.5540   24.6620 C   0  0  0  0  0  0  0  0  0  0  0  0
   53.0052   77.7203   29.0727 H   0  0  0  0  0  0  0  0  0  0  0  0
   51.8890   78.3314   27.8049 H   0  0  0  0  0  0  0  0  0  0  0  0
   52.3899   76.6064   27.8049 H   0  0  0  0  0  0  0  0  0  0  0  0
   54.2561   77.0343   26.6877 H   0  0  0  0  0  0  0  0  0  0  0  0
   54.7750   77.2128   29.5762 H   0  0  0  0  0  0  0  0  0  0  0  0
   56.7627   77.9662   30.8452 H   0  0  0  0  0  0  0  0  0  0  0  0
   59.2117   78.9597   29.7311 H   0  0  0  0  0  0  0  0  0  0  0  0
   60.0465   81.6677   30.0707 H   0  0  0  0  0  0  0  0  0  0  0  0
   58.6633   82.2312   29.6338 H   0  0  0  0  0  0  0  0  0  0  0  0
   59.2794   80.3881   32.2021 H   0  0  0  0  0  0  0  0  0  0  0  0
   57.7623   80.7279   32.1377 H   0  0  0  0  0  0  0  0  0  0  0  0
   57.8097   80.6276   27.6254 H   0  0  0  0  0  0  0  0  0  0  0  0
   55.8246   79.8782   26.3486 H   0  0  0  0  0  0  0  0  0  0  0  0
   52.7253   80.4705   27.3282 H   0  0  0  0  0  0  0  0  0  0  0  0
   52.0209   81.9863   25.4760 H   0  0  0  0  0  0  0  0  0  0  0  0
   50.4810   80.4960   21.7790 H   0  0  0  0  0  0  0  0  0  0  0  0
   50.1870   81.1140   23.3250 H   0  0  0  0  0  0  0  0  0  0  0  0
   53.4419   79.1010   22.5758 H   0  0  0  0  0  0  0  0  0  0  0  0
   54.1405   77.5831   24.4287 H   0  0  0  0  0  0  0  0  0  0  0  0
  1  2  1  0
  2  3  1  0
  3  4  1  0
  4  5  2  0
  5  6  1  0
  6  7  1  0
  7  8  1  0
  8  9  1  0
  6 10  2  0
 10 11  1  0
  2 12  1  0
 12 13  1  0
 13 14  2  0
 14 15  1  0
 15 16  1  0
 16 17  1  0
 16 18  2  0
 16 19  2  0
 15 20  2  0
 20 21  1  0
 11  3  2  0
 21 12  2  0
  9  7  1  0
  1 22  1  0
  1 23  1  0
  1 24  1  0
  2 25  1  0
  4 26  1  0
  5 27  1  0
  7 28  1  0
  8 29  1  0
  8 30  1  0
  9 31  1  0
  9 32  1  0
 10 33  1  0
 11 34  1  0
 13 35  1  0
 14 36  1  0
 17 37  1  0
 17 38  1  0
 20 39  1  0
 21 40  1  0
M  END
>  <meeko>  (1) 
{"is_sidechain": false}

>  <smiles>  (1) 
CC(c1ccc(C2CC2)cc1)c1ccc(S(N)(=O)=O)cc1

>  <vina_score>  (1) 
-8.426

>  <job_id>  (1) 
f512d6ea7f61bfdc

$$$$
