
     RDKit          3D

 61 64  0  0  0  0  0  0  0  0999 V2000
   66.2170   88.7530   25.8270 C   0  0  0  0  0  0  0  0  0  0  0  0
   66.0940   87.3350   26.1110 N   0  0  0  0  0  0  0  0  0  0  0  0
   65.4530   86.9190   27.2820 C   0  0  0  0  0  0  0  0  0  0  0  0
   64.4920   87.6830   27.9550 C   0  0  0  0  0  0  0  0  0  0  0  0
   63.8320   87.1830   29.0860 C   0  0  0  0  0  0  0  0  0  0  0  0
   64.1050   85.9000   29.5570 C   0  0  0  0  0  0  0  0  0  0  0  0
   63.4370   85.3930   30.6790 N   0  0  0  0  0  0  0  0  0  0  0  0
   63.3530   84.0990   30.7480 C   0  0  0  0  0  0  0  0  0  0  0  0
   62.6810   83.4130   31.8750 C   0  0  0  0  0  0  0  0  0  0  0  0
   63.4830   82.8950   32.9010 C   0  0  0  0  0  0  0  0  0  0  0  0
   62.9330   82.1500   33.9460 C   0  0  0  0  0  0  0  0  0  0  0  0
   61.5600   81.9070   33.9010 C   0  0  0  0  0  0  0  0  0  0  0  0
   60.7640   81.1940   34.7770 N   0  0  0  0  0  0  0  0  0  0  0  0
   59.4660   81.2010   34.3540 C   0  0  0  0  0  0  0  0  0  0  0  0
   58.5160   80.6070   35.0630 O   0  0  0  0  0  0  0  0  0  0  0  0
   59.4350   81.8850   33.1660 C   0  0  0  0  0  0  0  0  0  0  0  0
   58.2810   82.0660   32.3940 N   0  0  0  0  0  0  0  0  0  0  0  0
   58.1860   81.2570   31.3810 C   0  0  0  0  0  0  0  0  0  0  0  0
   59.1830   80.2130   30.9710 C   0  0  0  0  0  0  0  0  0  0  0  0
   59.0410   79.4200   29.9550 N   0  0  0  0  0  0  0  0  0  0  0  0
   57.8690   79.4820   29.1940 C   0  0  0  0  0  0  0  0  0  0  0  0
   57.8130   80.2810   28.0490 C   0  0  0  0  0  0  0  0  0  0  0  0
   56.6530   80.3270   27.2700 C   0  0  0  0  0  0  0  0  0  0  0  0
   55.5470   79.5580   27.6450 C   0  0  0  0  0  0  0  0  0  0  0  0
   54.0760   79.5810   26.6520 S   0  0  0  0  0  0  0  0  0  0  0  0
   54.7120   79.8440   25.1150 N   0  0  0  0  0  0  0  0  0  0  0  0
   53.2960   80.7380   27.0150 O   0  0  0  0  0  0  0  0  0  0  0  0
   53.5260   78.2450   26.6180 O   0  0  0  0  0  0  0  0  0  0  0  0
   55.6000   78.7320   28.7700 C   0  0  0  0  0  0  0  0  0  0  0  0
   56.7660   78.6950   29.5380 C   0  0  0  0  0  0  0  0  0  0  0  0
   60.7340   82.4000   32.8860 C   0  0  0  0  0  0  0  0  0  0  0  0
   61.2750   83.2320   31.8660 C   0  0  0  0  0  0  0  0  0  0  0  0
   60.4180   83.8320   30.9020 N   0  0  0  0  0  0  0  0  0  0  0  0
   59.8430   85.0910   31.3920 C   0  0  0  0  0  0  0  0  0  0  0  0
   65.0160   85.1070   28.8640 C   0  0  0  0  0  0  0  0  0  0  0  0
   65.6740   85.6090   27.7350 C   0  0  0  0  0  0  0  0  0  0  0  0
   66.2656   89.3134   26.7723 H   0  0  0  0  0  0  0  0  0  0  0  0
   67.1341   88.9325   25.2467 H   0  0  0  0  0  0  0  0  0  0  0  0
   65.3445   89.0878   25.2467 H   0  0  0  0  0  0  0  0  0  0  0  0
   66.9580   86.8220   25.9520 H   0  0  0  0  0  0  0  0  0  0  0  0
   64.2509   88.6923   27.5902 H   0  0  0  0  0  0  0  0  0  0  0  0
   63.0920   87.8088   29.6064 H   0  0  0  0  0  0  0  0  0  0  0  0
   63.7952   83.4931   29.9434 H   0  0  0  0  0  0  0  0  0  0  0  0
   64.5673   83.0790   32.8826 H   0  0  0  0  0  0  0  0  0  0  0  0
   63.5558   81.7708   34.7697 H   0  0  0  0  0  0  0  0  0  0  0  0
   61.0850   80.7430   35.6230 H   0  0  0  0  0  0  0  0  0  0  0  0
   58.7730   79.6650   35.0940 H   0  0  0  0  0  0  0  0  0  0  0  0
   57.2821   81.3469   30.7606 H   0  0  0  0  0  0  0  0  0  0  0  0
   60.0975   80.1136   31.5741 H   0  0  0  0  0  0  0  0  0  0  0  0
   58.6892   80.8790   27.7580 H   0  0  0  0  0  0  0  0  0  0  0  0
   56.6108   80.9611   26.3721 H   0  0  0  0  0  0  0  0  0  0  0  0
   54.0100   79.8550   24.3780 H   0  0  0  0  0  0  0  0  0  0  0  0
   55.2690   80.7000   25.1310 H   0  0  0  0  0  0  0  0  0  0  0  0
   54.7318   78.1166   29.0485 H   0  0  0  0  0  0  0  0  0  0  0  0
   56.8168   78.0410   30.4210 H   0  0  0  0  0  0  0  0  0  0  0  0
   59.6300   83.1910   30.7640 H   0  0  0  0  0  0  0  0  0  0  0  0
   59.8432   85.0906   32.4920 H   0  0  0  0  0  0  0  0  0  0  0  0
   60.4445   85.9359   31.0255 H   0  0  0  0  0  0  0  0  0  0  0  0
   58.8105   85.1897   31.0255 H   0  0  0  0  0  0  0  0  0  0  0  0
   65.2195   84.0813   29.2053 H   0  0  0  0  0  0  0  0  0  0  0  0
   66.3792   84.9632   27.1913 H   0  0  0  0  0  0  0  0  0  0  0  0
  1  2  1  0
  2  3  1  0
  3  4  1  0
  4  5  2  0
  5  6  1  0
  6  7  1  0
  7  8  2  3
  8  9  1  0
  9 10  2  0
 10 11  1  0
 11 12  2  0
 12 13  1  0
 13 14  1  0
 14 15  1  0
 14 16  2  0
 16 17  1  0
 17 18  2  3
 18 19  1  0
 19 20  2  3
 20 21  1  0
 21 22  1  0
 22 23  2  0
 23 24  1  0
 24 25  1  0
 25 26  1  0
 25 27  2  0
 25 28  2  0
 24 29  2  0
 29 30  1  0
 16 31  1  0
 31 32  2  0
 32 33  1  0
 33 34  1  0
  6 35  2  0
 35 36  1  0
 36  3  2  0
 32  9  1  0
 31 12  1  0
 30 21  2  0
  1 37  1  0
  1 38  1  0
  1 39  1  0
  2 40  1  0
  4 41  1  0
  5 42  1  0
  8 43  1  0
 10 44  1  0
 11 45  1  0
 13 46  1  0
 15 47  1  0
 18 48  1  0
 19 49  1  0
 22 50  1  0
 23 51  1  0
 26 52  1  0
 26 53  1  0
 29 54  1  0
 30 55  1  0
 33 56  1  0
 34 57  1  0
 34 58  1  0
 34 59  1  0
 35 60  1  0
 36 61  1  0
M  END
>  <meeko>  (1) 
{"is_sidechain": false}

>  <smiles>  (1) 
CNc1ccc(N=Cc2ccc3[nH]c(O)c(N=CC=Nc4ccc(S(N)(=O)=O)cc4)c3c2NC)cc1

>  <vina_score>  (1) 
-7.579

>  <job_id>  (1) 
f528bdb2e648213d

$$$$
