
     RDKit          3D

 33 34  0  0  0  0  0  0  0  0999 V2000
   52.1260   81.5120   24.0310 C   0  0  0  0  0  0  0  0  0  0  0  0
   52.2810   81.7980   25.4180 O   0  0  0  0  0  0  0  0  0  0  0  0
   53.3380   82.5810   25.8060 C   0  0  0  0  0  0  0  0  0  0  0  0
   53.3170   83.9820   25.7370 C   0  0  0  0  0  0  0  0  0  0  0  0
   54.4220   84.7230   26.1450 C   0  0  0  0  0  0  0  0  0  0  0  0
   54.3780   86.0600   26.0710 F   0  0  0  0  0  0  0  0  0  0  0  0
   55.5630   84.1030   26.6270 C   0  0  0  0  0  0  0  0  0  0  0  0
   55.6000   82.7120   26.7010 C   0  0  0  0  0  0  0  0  0  0  0  0
   54.4960   81.9320   26.2950 C   0  0  0  0  0  0  0  0  0  0  0  0
   54.6620   80.4360   26.4250 C   0  0  0  0  0  0  0  0  0  0  0  0
   55.5530   79.8910   25.7810 O   0  0  0  0  0  0  0  0  0  0  0  0
   53.7880   79.7870   27.2700 N   0  0  0  0  0  0  0  0  0  0  0  0
   53.7170   78.4120   27.5770 C   0  0  0  0  0  0  0  0  0  0  0  0
   52.9350   77.4870   26.8840 C   0  0  0  0  0  0  0  0  0  0  0  0
   52.9310   76.1290   27.2560 C   0  0  0  0  0  0  0  0  0  0  0  0
   52.0580   75.1530   26.5200 C   0  0  0  0  0  0  0  0  0  0  0  0
   53.7000   75.7080   28.3480 C   0  0  0  0  0  0  0  0  0  0  0  0
   54.4840   76.6240   29.0460 C   0  0  0  0  0  0  0  0  0  0  0  0
   54.4870   77.9590   28.6550 C   0  0  0  0  0  0  0  0  0  0  0  0
   55.2480   78.8310   29.3400 F   0  0  0  0  0  0  0  0  0  0  0  0
   51.6050   80.5507   23.9108 H   0  0  0  0  0  0  0  0  0  0  0  0
   51.5370   82.3102   23.5556 H   0  0  0  0  0  0  0  0  0  0  0  0
   53.1163   81.4543   23.5556 H   0  0  0  0  0  0  0  0  0  0  0  0
   52.4222   84.4976   25.3583 H   0  0  0  0  0  0  0  0  0  0  0  0
   56.4289   84.7011   26.9473 H   0  0  0  0  0  0  0  0  0  0  0  0
   56.5039   82.2140   27.0818 H   0  0  0  0  0  0  0  0  0  0  0  0
   53.0970   80.3650   27.7430 H   0  0  0  0  0  0  0  0  0  0  0  0
   52.3157   77.8220   26.0389 H   0  0  0  0  0  0  0  0  0  0  0  0
   51.5061   74.5360   27.2444 H   0  0  0  0  0  0  0  0  0  0  0  0
   51.3449   75.7029   25.8883 H   0  0  0  0  0  0  0  0  0  0  0  0
   52.6837   74.5054   25.8883 H   0  0  0  0  0  0  0  0  0  0  0  0
   53.6850   74.6519   28.6553 H   0  0  0  0  0  0  0  0  0  0  0  0
   55.0954   76.2944   29.8990 H   0  0  0  0  0  0  0  0  0  0  0  0
  1  2  1  0
  2  3  1  0
  3  4  1  0
  4  5  2  0
  5  6  1  0
  5  7  1  0
  7  8  2  0
  8  9  1  0
  9 10  1  0
 10 11  2  0
 10 12  1  0
 12 13  1  0
 13 14  1  0
 14 15  2  0
 15 16  1  0
 15 17  1  0
 17 18  2  0
 18 19  1  0
 19 20  1  0
  9  3  2  0
 19 13  2  0
  1 21  1  0
  1 22  1  0
  1 23  1  0
  4 24  1  0
  7 25  1  0
  8 26  1  0
 12 27  1  0
 14 28  1  0
 16 29  1  0
 16 30  1  0
 16 31  1  0
 17 32  1  0
 18 33  1  0
M  END
>  <meeko>  (1) 
{"is_sidechain": false}

>  <smiles>  (1) 
COc1cc(F)ccc1C(=O)Nc1cc(C)ccc1F

>  <vina_score>  (1) 
-7.493

>  <job_id>  (1) 
f5356615b6ffd255

$$$$
