
     RDKit          3D

 63 66  0  0  0  0  0  0  0  0999 V2000
   53.2330   83.4100   25.1550 C   0  0  0  0  0  0  0  0  0  0  0  0
   52.7820   82.3290   24.2120 C   0  0  0  0  0  0  0  0  0  0  0  0
   52.0510   82.7280   23.0760 C   0  0  0  0  0  0  0  0  0  0  0  0
   51.5880   81.7950   22.1480 C   0  0  0  0  0  0  0  0  0  0  0  0
   51.8430   80.4440   22.3460 C   0  0  0  0  0  0  0  0  0  0  0  0
   52.5520   80.0340   23.4750 C   0  0  0  0  0  0  0  0  0  0  0  0
   53.0190   80.9550   24.4310 C   0  0  0  0  0  0  0  0  0  0  0  0
   53.7170   80.4270   25.5250 N   0  0  0  0  0  0  0  0  0  0  0  0
   55.1380   80.1470   25.3300 C   0  0  0  0  0  0  0  0  0  0  0  0
   55.9720   81.0250   26.2560 C   0  0  0  0  0  0  0  0  0  0  0  0
   56.2660   80.4590   27.6480 C   0  0  0  0  0  0  0  0  0  0  0  0
   56.0150   79.0130   27.7710 N   0  0  0  0  0  0  0  0  0  0  0  0
   56.9440   78.4160   28.7490 C   0  0  0  0  0  0  0  0  0  0  0  0
   58.3420   78.8160   28.7560 N   0  0  0  0  0  0  0  0  0  0  0  0
   58.7890   79.7920   29.6470 C   0  0  0  0  0  0  0  0  0  0  0  0
   59.5480   80.8540   29.1520 C   0  0  0  0  0  0  0  0  0  0  0  0
   59.9760   81.9030   29.9820 C   0  0  0  0  0  0  0  0  0  0  0  0
   59.6450   81.9560   31.3410 C   0  0  0  0  0  0  0  0  0  0  0  0
   60.0670   82.9850   32.1620 N   0  0  0  0  0  0  0  0  0  0  0  0
   60.6880   84.2060   31.6270 C   0  0  0  0  0  0  0  0  0  0  0  0
   60.4300   85.3890   32.5770 C   0  0  0  0  0  0  0  0  0  0  0  0
   60.9340   85.1950   33.9060 O   0  0  0  0  0  0  0  0  0  0  0  0
   60.9730   83.8160   34.3000 C   0  0  0  0  0  0  0  0  0  0  0  0
   59.9060   82.9390   33.6240 C   0  0  0  0  0  0  0  0  0  0  0  0
   58.8460   80.9080   31.8160 C   0  0  0  0  0  0  0  0  0  0  0  0
   58.4130   79.8580   30.9870 C   0  0  0  0  0  0  0  0  0  0  0  0
   54.6250   78.7210   28.1850 C   0  0  0  0  0  0  0  0  0  0  0  0
   53.6690   78.3770   27.0160 C   0  0  0  0  0  0  0  0  0  0  0  0
   52.9090   79.5320   26.3580 C   0  0  0  0  0  0  0  0  0  0  0  0
   53.0926   83.0734   26.1928 H   0  0  0  0  0  0  0  0  0  0  0  0
   54.2971   83.6279   24.9810 H   0  0  0  0  0  0  0  0  0  0  0  0
   52.6393   84.3195   24.9810 H   0  0  0  0  0  0  0  0  0  0  0  0
   51.8411   83.7961   22.9175 H   0  0  0  0  0  0  0  0  0  0  0  0
   51.0239   82.1274   21.2641 H   0  0  0  0  0  0  0  0  0  0  0  0
   51.4877   79.7015   21.6163 H   0  0  0  0  0  0  0  0  0  0  0  0
   52.7514   78.9623   23.6220 H   0  0  0  0  0  0  0  0  0  0  0  0
   55.3354   79.0886   25.5554 H   0  0  0  0  0  0  0  0  0  0  0  0
   55.4094   80.3619   24.2859 H   0  0  0  0  0  0  0  0  0  0  0  0
   56.9360   81.2130   25.7606 H   0  0  0  0  0  0  0  0  0  0  0  0
   55.3656   81.9263   26.4290 H   0  0  0  0  0  0  0  0  0  0  0  0
   57.3242   80.6477   27.8819 H   0  0  0  0  0  0  0  0  0  0  0  0
   55.5819   80.9618   28.3474 H   0  0  0  0  0  0  0  0  0  0  0  0
   56.5431   78.6422   29.7481 H   0  0  0  0  0  0  0  0  0  0  0  0
   56.9832   77.3581   28.4502 H   0  0  0  0  0  0  0  0  0  0  0  0
   58.9560   78.0110   28.7330 H   0  0  0  0  0  0  0  0  0  0  0  0
   59.8175   80.8696   28.0856 H   0  0  0  0  0  0  0  0  0  0  0  0
   60.5900   82.7075   29.5510 H   0  0  0  0  0  0  0  0  0  0  0  0
   61.7722   84.0492   31.5269 H   0  0  0  0  0  0  0  0  0  0  0  0
   60.2507   84.4316   30.6432 H   0  0  0  0  0  0  0  0  0  0  0  0
   60.9099   86.2833   32.1529 H   0  0  0  0  0  0  0  0  0  0  0  0
   59.3384   85.4928   32.6643 H   0  0  0  0  0  0  0  0  0  0  0  0
   61.9640   83.4120   34.0455 H   0  0  0  0  0  0  0  0  0  0  0  0
   60.7676   83.7891   35.3803 H   0  0  0  0  0  0  0  0  0  0  0  0
   60.0159   81.9006   33.9698 H   0  0  0  0  0  0  0  0  0  0  0  0
   58.9077   83.3175   33.8888 H   0  0  0  0  0  0  0  0  0  0  0  0
   58.5469   80.9064   32.8745 H   0  0  0  0  0  0  0  0  0  0  0  0
   57.7648   79.0734   31.4045 H   0  0  0  0  0  0  0  0  0  0  0  0
   54.6443   77.8660   28.8768 H   0  0  0  0  0  0  0  0  0  0  0  0
   54.2359   79.6391   28.6494 H   0  0  0  0  0  0  0  0  0  0  0  0
   54.2686   77.8894   26.2332 H   0  0  0  0  0  0  0  0  0  0  0  0
   52.8868   77.7509   27.4700 H   0  0  0  0  0  0  0  0  0  0  0  0
   52.1196   79.1008   25.7248 H   0  0  0  0  0  0  0  0  0  0  0  0
   52.5276   80.1510   27.1835 H   0  0  0  0  0  0  0  0  0  0  0  0
  1  2  1  0
  2  3  2  0
  3  4  1  0
  4  5  2  0
  5  6  1  0
  6  7  2  0
  7  8  1  0
  8  9  1  0
  9 10  1  0
 10 11  1  0
 11 12  1  0
 12 13  1  0
 13 14  1  0
 14 15  1  0
 15 16  1  0
 16 17  2  0
 17 18  1  0
 18 19  1  0
 19 20  1  0
 20 21  1  0
 21 22  1  0
 22 23  1  0
 23 24  1  0
 18 25  2  0
 25 26  1  0
 12 27  1  0
 27 28  1  0
 28 29  1  0
  7  2  1  0
 29  8  1  0
 26 15  2  0
 24 19  1  0
  1 30  1  0
  1 31  1  0
  1 32  1  0
  3 33  1  0
  4 34  1  0
  5 35  1  0
  6 36  1  0
  9 37  1  0
  9 38  1  0
 10 39  1  0
 10 40  1  0
 11 41  1  0
 11 42  1  0
 13 43  1  0
 13 44  1  0
 14 45  1  0
 16 46  1  0
 17 47  1  0
 20 48  1  0
 20 49  1  0
 21 50  1  0
 21 51  1  0
 23 52  1  0
 23 53  1  0
 24 54  1  0
 24 55  1  0
 25 56  1  0
 26 57  1  0
 27 58  1  0
 27 59  1  0
 28 60  1  0
 28 61  1  0
 29 62  1  0
 29 63  1  0
M  END
>  <meeko>  (1) 
{"is_sidechain": false}

>  <smiles>  (1) 
Cc1ccccc1N1CCCN(CNc2ccc(N3CCOCC3)cc2)CCC1

>  <vina_score>  (1) 
-6.086

>  <job_id>  (1) 
f57b228dd122b15f

$$$$
