
     RDKit          3D

 63 68  0  0  0  0  0  0  0  0999 V2000
   63.7510   84.2980   37.2940 C   0  0  0  0  0  0  0  0  0  0  0  0
   62.7160   84.8740   36.5070 O   0  0  0  0  0  0  0  0  0  0  0  0
   62.1750   84.0960   35.5200 C   0  0  0  0  0  0  0  0  0  0  0  0
   60.9980   84.5990   34.9700 C   0  0  0  0  0  0  0  0  0  0  0  0
   60.3370   83.9050   33.9560 C   0  0  0  0  0  0  0  0  0  0  0  0
   60.8420   82.6880   33.4690 C   0  0  0  0  0  0  0  0  0  0  0  0
   60.1150   81.9880   32.3920 C   0  0  0  0  0  0  0  0  0  0  0  0
   58.9730   81.1800   32.7300 C   0  0  0  0  0  0  0  0  0  0  0  0
   58.1850   80.4650   31.8000 C   0  0  0  0  0  0  0  0  0  0  0  0
   58.6450   80.6390   30.4960 C   0  0  0  0  0  0  0  0  0  0  0  0
   58.1260   80.1010   29.3420 C   0  0  0  0  0  0  0  0  0  0  0  0
   57.0250   79.2720   28.9910 C   0  0  0  0  0  0  0  0  0  0  0  0
   56.1890   79.5660   28.0190 N   0  0  0  0  0  0  0  0  0  0  0  0
   55.2510   78.5450   27.9890 C   0  0  0  0  0  0  0  0  0  0  0  0
   54.1360   78.3490   27.1190 C   0  0  0  0  0  0  0  0  0  0  0  0
   53.7430   79.2180   26.0900 N   0  0  0  0  0  0  0  0  0  0  0  0
   53.3090   78.6460   24.8030 C   0  0  0  0  0  0  0  0  0  0  0  0
   53.1730   79.7750   23.7550 C   0  0  0  0  0  0  0  0  0  0  0  0
   52.1650   80.8080   24.0950 N   0  0  0  0  0  0  0  0  0  0  0  0
   52.5600   82.1070   23.5590 C   0  0  0  0  0  0  0  0  0  0  0  0
   51.9260   80.8620   25.5520 C   0  0  0  0  0  0  0  0  0  0  0  0
   53.1360   80.5130   26.4540 C   0  0  0  0  0  0  0  0  0  0  0  0
   53.3690   77.1860   27.3880 C   0  0  0  0  0  0  0  0  0  0  0  0
   53.6810   76.2780   28.4050 C   0  0  0  0  0  0  0  0  0  0  0  0
   54.7830   76.4740   29.2310 C   0  0  0  0  0  0  0  0  0  0  0  0
   55.5380   77.6200   28.9900 C   0  0  0  0  0  0  0  0  0  0  0  0
   56.6580   78.1120   29.6120 N   0  0  0  0  0  0  0  0  0  0  0  0
   58.9730   80.5400   28.3570 N   0  0  0  0  0  0  0  0  0  0  0  0
   59.9570   81.3580   28.7700 N   0  0  0  0  0  0  0  0  0  0  0  0
   59.7940   81.4310   30.1010 C   0  0  0  0  0  0  0  0  0  0  0  0
   60.5550   82.1310   31.0520 C   0  0  0  0  0  0  0  0  0  0  0  0
   62.0360   82.1800   34.0270 C   0  0  0  0  0  0  0  0  0  0  0  0
   62.4690   80.9780   33.5220 O   0  0  0  0  0  0  0  0  0  0  0  0
   62.6290   79.8950   34.4260 C   0  0  0  0  0  0  0  0  0  0  0  0
   62.6910   82.8860   35.0490 C   0  0  0  0  0  0  0  0  0  0  0  0
   63.5164   84.4286   38.3607 H   0  0  0  0  0  0  0  0  0  0  0  0
   63.8319   83.2251   37.0650 H   0  0  0  0  0  0  0  0  0  0  0  0
   64.7054   84.7947   37.0650 H   0  0  0  0  0  0  0  0  0  0  0  0
   60.5867   85.5505   35.3379 H   0  0  0  0  0  0  0  0  0  0  0  0
   59.4087   84.3160   33.5326 H   0  0  0  0  0  0  0  0  0  0  0  0
   58.6925   81.1141   33.7916 H   0  0  0  0  0  0  0  0  0  0  0  0
   57.3161   79.8475   32.0717 H   0  0  0  0  0  0  0  0  0  0  0  0
   54.0536   77.9135   24.4579 H   0  0  0  0  0  0  0  0  0  0  0  0
   52.3367   78.1482   24.9330 H   0  0  0  0  0  0  0  0  0  0  0  0
   54.1506   80.2688   23.6524 H   0  0  0  0  0  0  0  0  0  0  0  0
   52.8331   79.2993   22.8233 H   0  0  0  0  0  0  0  0  0  0  0  0
   52.7700   82.7976   24.3890 H   0  0  0  0  0  0  0  0  0  0  0  0
   53.4631   81.9898   22.9420 H   0  0  0  0  0  0  0  0  0  0  0  0
   51.7445   82.5124   22.9420 H   0  0  0  0  0  0  0  0  0  0  0  0
   51.6038   81.8836   25.8022 H   0  0  0  0  0  0  0  0  0  0  0  0
   51.1716   80.0881   25.7568 H   0  0  0  0  0  0  0  0  0  0  0  0
   53.8951   81.3023   26.3506 H   0  0  0  0  0  0  0  0  0  0  0  0
   52.7762   80.4395   27.4909 H   0  0  0  0  0  0  0  0  0  0  0  0
   52.4841   76.9885   26.7651 H   0  0  0  0  0  0  0  0  0  0  0  0
   53.0440   75.3937   28.5543 H   0  0  0  0  0  0  0  0  0  0  0  0
   55.0438   75.7640   30.0297 H   0  0  0  0  0  0  0  0  0  0  0  0
   57.1100   77.6990   30.4100 H   0  0  0  0  0  0  0  0  0  0  0  0
   58.9040   80.3130   27.3700 H   0  0  0  0  0  0  0  0  0  0  0  0
   61.4264   82.7437   30.7776 H   0  0  0  0  0  0  0  0  0  0  0  0
   62.5738   80.2686   35.4592 H   0  0  0  0  0  0  0  0  0  0  0  0
   61.8301   79.1574   34.2596 H   0  0  0  0  0  0  0  0  0  0  0  0
   63.6071   79.4199   34.2596 H   0  0  0  0  0  0  0  0  0  0  0  0
   63.6182   82.4830   35.4824 H   0  0  0  0  0  0  0  0  0  0  0  0
  1  2  1  0
  2  3  1  0
  3  4  1  0
  4  5  2  0
  5  6  1  0
  6  7  1  0
  7  8  1  0
  8  9  2  0
  9 10  1  0
 10 11  2  0
 11 12  1  0
 12 13  2  0
 13 14  1  0
 14 15  2  0
 15 16  1  0
 16 17  1  0
 17 18  1  0
 18 19  1  0
 19 20  1  0
 19 21  1  0
 21 22  1  0
 15 23  1  0
 23 24  2  0
 24 25  1  0
 25 26  2  0
 26 27  1  0
 11 28  1  0
 28 29  1  0
 29 30  2  0
 30 31  1  0
  6 32  2  0
 32 33  1  0
 33 34  1  0
 32 35  1  0
 35  3  2  0
 31  7  2  0
 30 10  1  0
 27 12  1  0
 26 14  1  0
 22 16  1  0
  1 36  1  0
  1 37  1  0
  1 38  1  0
  4 39  1  0
  5 40  1  0
  8 41  1  0
  9 42  1  0
 17 43  1  0
 17 44  1  0
 18 45  1  0
 18 46  1  0
 20 47  1  0
 20 48  1  0
 20 49  1  0
 21 50  1  0
 21 51  1  0
 22 52  1  0
 22 53  1  0
 23 54  1  0
 24 55  1  0
 25 56  1  0
 27 57  1  0
 28 58  1  0
 31 59  1  0
 34 60  1  0
 34 61  1  0
 34 62  1  0
 35 63  1  0
M  END
>  <meeko>  (1) 
{"is_sidechain": false}

>  <smiles>  (1) 
COc1ccc(-c2ccc3c(-c4nc5c(N6CCN(C)CC6)cccc5[nH]4)[nH]nc3c2)c(OC)c1

>  <vina_score>  (1) 
-9.230

>  <job_id>  (1) 
f57c44466fc885dd

$$$$
