
     RDKit          3D

 37 38  0  0  0  0  0  0  0  0999 V2000
   58.7560   83.5980   31.4830 C   0  0  0  0  0  0  0  0  0  0  0  0
   59.9420   82.3350   31.1010 S   0  0  0  0  0  0  0  0  0  0  0  0
   60.4210   81.7810   32.3530 O   0  0  0  0  0  0  0  0  0  0  0  0
   60.8660   82.8590   30.1140 O   0  0  0  0  0  0  0  0  0  0  0  0
   58.9610   81.0870   30.3010 C   0  0  0  0  0  0  0  0  0  0  0  0
   58.1890   80.2230   31.0780 C   0  0  0  0  0  0  0  0  0  0  0  0
   57.4310   79.2320   30.4540 C   0  0  0  0  0  0  0  0  0  0  0  0
   57.4370   79.1060   29.0560 C   0  0  0  0  0  0  0  0  0  0  0  0
   56.6850   77.9700   28.3950 C   0  0  0  0  0  0  0  0  0  0  0  0
   55.1810   77.9920   28.6530 C   0  0  0  0  0  0  0  0  0  0  0  0
   54.6460   77.1360   29.3550 O   0  0  0  0  0  0  0  0  0  0  0  0
   54.5260   79.1080   28.1780 N   0  0  0  0  0  0  0  0  0  0  0  0
   53.5800   78.9340   27.1890 C   0  0  0  0  0  0  0  0  0  0  0  0
   52.9600   77.9010   26.9690 O   0  0  0  0  0  0  0  0  0  0  0  0
   53.3550   80.1140   26.3060 C   0  0  0  0  0  0  0  0  0  0  0  0
   53.3100   81.3840   26.8960 C   0  0  0  0  0  0  0  0  0  0  0  0
   53.0760   82.5160   26.1130 C   0  0  0  0  0  0  0  0  0  0  0  0
   52.8900   82.3830   24.7370 C   0  0  0  0  0  0  0  0  0  0  0  0
   52.9480   81.1230   24.1410 C   0  0  0  0  0  0  0  0  0  0  0  0
   53.1850   79.9880   24.9200 C   0  0  0  0  0  0  0  0  0  0  0  0
   58.1900   80.0070   28.2870 C   0  0  0  0  0  0  0  0  0  0  0  0
   58.9510   80.9990   28.9080 C   0  0  0  0  0  0  0  0  0  0  0  0
   58.6637   83.6962   32.5747 H   0  0  0  0  0  0  0  0  0  0  0  0
   59.0892   84.5552   31.0556 H   0  0  0  0  0  0  0  0  0  0  0  0
   57.7797   83.3256   31.0556 H   0  0  0  0  0  0  0  0  0  0  0  0
   58.1781   80.3223   32.1735 H   0  0  0  0  0  0  0  0  0  0  0  0
   56.8244   78.5445   31.0617 H   0  0  0  0  0  0  0  0  0  0  0  0
   56.8512   78.0299   27.3093 H   0  0  0  0  0  0  0  0  0  0  0  0
   57.0702   77.0360   28.8300 H   0  0  0  0  0  0  0  0  0  0  0  0
   55.1370   79.8900   27.9930 H   0  0  0  0  0  0  0  0  0  0  0  0
   53.4597   81.4897   27.9806 H   0  0  0  0  0  0  0  0  0  0  0  0
   53.0384   83.5110   26.5804 H   0  0  0  0  0  0  0  0  0  0  0  0
   52.6972   83.2734   24.1206 H   0  0  0  0  0  0  0  0  0  0  0  0
   52.8067   81.0230   23.0547 H   0  0  0  0  0  0  0  0  0  0  0  0
   53.2382   78.9965   24.4466 H   0  0  0  0  0  0  0  0  0  0  0  0
   58.1804   79.9311   27.1897 H   0  0  0  0  0  0  0  0  0  0  0  0
   59.5385   81.7061   28.3040 H   0  0  0  0  0  0  0  0  0  0  0  0
  1  2  1  0
  2  3  2  0
  2  4  2  0
  2  5  1  0
  5  6  1  0
  6  7  2  0
  7  8  1  0
  8  9  1  0
  9 10  1  0
 10 11  2  0
 10 12  1  0
 12 13  1  0
 13 14  2  0
 13 15  1  0
 15 16  2  0
 16 17  1  0
 17 18  2  0
 18 19  1  0
 19 20  2  0
  8 21  2  0
 21 22  1  0
 22  5  2  0
 20 15  1  0
  1 23  1  0
  1 24  1  0
  1 25  1  0
  6 26  1  0
  7 27  1  0
  9 28  1  0
  9 29  1  0
 12 30  1  0
 16 31  1  0
 17 32  1  0
 18 33  1  0
 19 34  1  0
 20 35  1  0
 21 36  1  0
 22 37  1  0
M  END
>  <meeko>  (1) 
{"is_sidechain": false}

>  <smiles>  (1) 
CS(=O)(=O)c1ccc(CC(=O)NC(=O)c2ccccc2)cc1

>  <vina_score>  (1) 
-7.840

>  <job_id>  (1) 
f6103099f6515153

$$$$
