
     RDKit          3D

 44 46  0  0  0  0  0  0  0  0999 V2000
   52.5600   77.2240   28.0160 C   0  0  0  0  0  0  0  0  0  0  0  0
   53.9760   77.6540   28.2490 C   0  0  0  0  0  0  0  0  0  0  0  0
   54.5200   78.7300   27.5420 C   0  0  0  0  0  0  0  0  0  0  0  0
   55.8520   79.1070   27.7400 C   0  0  0  0  0  0  0  0  0  0  0  0
   56.6780   78.4140   28.6340 C   0  0  0  0  0  0  0  0  0  0  0  0
   57.9980   78.8560   28.8260 N   0  0  0  0  0  0  0  0  0  0  0  0
   58.5460   79.8630   29.6370 C   0  0  0  0  0  0  0  0  0  0  0  0
   58.2770   79.8570   31.0060 C   0  0  0  0  0  0  0  0  0  0  0  0
   58.7710   80.8650   31.8490 C   0  0  0  0  0  0  0  0  0  0  0  0
   59.5510   81.9250   31.3650 C   0  0  0  0  0  0  0  0  0  0  0  0
   60.0330   82.9180   32.1990 N   0  0  0  0  0  0  0  0  0  0  0  0
   60.0610   82.7490   33.6620 C   0  0  0  0  0  0  0  0  0  0  0  0
   61.2050   83.5720   34.3020 C   0  0  0  0  0  0  0  0  0  0  0  0
   61.2130   85.0170   33.9930 N   0  0  0  0  0  0  0  0  0  0  0  0
   60.6120   85.8060   35.0650 C   0  0  0  0  0  0  0  0  0  0  0  0
   60.5390   85.2940   32.7050 C   0  0  0  0  0  0  0  0  0  0  0  0
   60.6480   84.1470   31.6730 C   0  0  0  0  0  0  0  0  0  0  0  0
   59.8050   81.9200   29.9860 C   0  0  0  0  0  0  0  0  0  0  0  0
   59.3110   80.9150   29.1380 C   0  0  0  0  0  0  0  0  0  0  0  0
   56.1280   77.3340   29.3310 C   0  0  0  0  0  0  0  0  0  0  0  0
   54.7960   76.9500   29.1360 C   0  0  0  0  0  0  0  0  0  0  0  0
   52.0591   77.0719   28.9834 H   0  0  0  0  0  0  0  0  0  0  0  0
   52.0296   78.0016   27.4467 H   0  0  0  0  0  0  0  0  0  0  0  0
   52.5516   76.2828   27.4467 H   0  0  0  0  0  0  0  0  0  0  0  0
   53.8962   79.2840   26.8251 H   0  0  0  0  0  0  0  0  0  0  0  0
   56.2587   79.9640   27.1831 H   0  0  0  0  0  0  0  0  0  0  0  0
   58.6810   78.3690   28.2580 H   0  0  0  0  0  0  0  0  0  0  0  0
   57.6666   79.0475   31.4327 H   0  0  0  0  0  0  0  0  0  0  0  0
   58.5388   80.8219   32.9234 H   0  0  0  0  0  0  0  0  0  0  0  0
   59.1006   83.0853   34.0799 H   0  0  0  0  0  0  0  0  0  0  0  0
   60.2318   81.6855   33.8852 H   0  0  0  0  0  0  0  0  0  0  0  0
   61.1294   83.4615   35.3938 H   0  0  0  0  0  0  0  0  0  0  0  0
   62.1353   83.1713   33.8731 H   0  0  0  0  0  0  0  0  0  0  0  0
   60.9224   85.3985   36.0385 H   0  0  0  0  0  0  0  0  0  0  0  0
   60.9449   86.8511   34.9820 H   0  0  0  0  0  0  0  0  0  0  0  0
   59.5160   85.7626   34.9820 H   0  0  0  0  0  0  0  0  0  0  0  0
   59.4731   85.4773   32.9058 H   0  0  0  0  0  0  0  0  0  0  0  0
   61.0455   86.1652   32.2641 H   0  0  0  0  0  0  0  0  0  0  0  0
   60.1315   84.4426   30.7479 H   0  0  0  0  0  0  0  0  0  0  0  0
   61.7113   83.9527   31.4692 H   0  0  0  0  0  0  0  0  0  0  0  0
   60.4112   82.7299   29.5540 H   0  0  0  0  0  0  0  0  0  0  0  0
   59.5320   80.9594   28.0613 H   0  0  0  0  0  0  0  0  0  0  0  0
   56.7525   76.7766   30.0447 H   0  0  0  0  0  0  0  0  0  0  0  0
   54.3911   76.0872   29.6852 H   0  0  0  0  0  0  0  0  0  0  0  0
  1  2  1  0
  2  3  1  0
  3  4  2  0
  4  5  1  0
  5  6  1  0
  6  7  1  0
  7  8  1  0
  8  9  2  0
  9 10  1  0
 10 11  1  0
 11 12  1  0
 12 13  1  0
 13 14  1  0
 14 15  1  0
 14 16  1  0
 16 17  1  0
 10 18  2  0
 18 19  1  0
  5 20  2  0
 20 21  1  0
 21  2  2  0
 19  7  2  0
 17 11  1  0
  1 22  1  0
  1 23  1  0
  1 24  1  0
  3 25  1  0
  4 26  1  0
  6 27  1  0
  8 28  1  0
  9 29  1  0
 12 30  1  0
 12 31  1  0
 13 32  1  0
 13 33  1  0
 15 34  1  0
 15 35  1  0
 15 36  1  0
 16 37  1  0
 16 38  1  0
 17 39  1  0
 17 40  1  0
 18 41  1  0
 19 42  1  0
 20 43  1  0
 21 44  1  0
M  END
>  <meeko>  (1) 
{"is_sidechain": false}

>  <smiles>  (1) 
Cc1ccc(Nc2ccc(N3CCN(C)CC3)cc2)cc1

>  <vina_score>  (1) 
-7.701

>  <job_id>  (1) 
f636eaeb167d9143

$$$$
