
     RDKit          3D

 39 42  0  0  0  0  0  0  0  0999 V2000
   51.0600   75.3570   25.3950 N   0  0  0  0  0  0  0  0  0  0  0  0
   52.1140   75.2390   26.4000 C   0  0  0  0  0  0  0  0  0  0  0  0
   51.8480   76.1630   27.5920 C   0  0  0  0  0  0  0  0  0  0  0  0
   53.1260   76.7740   28.1080 C   0  0  0  0  0  0  0  0  0  0  0  0
   53.8090   77.8360   27.6280 C   0  0  0  0  0  0  0  0  0  0  0  0
   53.3090   78.6080   26.4510 C   0  0  0  0  0  0  0  0  0  0  0  0
   53.9430   79.7010   25.9340 C   0  0  0  0  0  0  0  0  0  0  0  0
   53.3490   80.3210   24.7950 C   0  0  0  0  0  0  0  0  0  0  0  0
   52.9350   79.8500   23.5640 C   0  0  0  0  0  0  0  0  0  0  0  0
   52.4270   80.9480   22.8270 C   0  0  0  0  0  0  0  0  0  0  0  0
   52.5600   82.0670   23.6190 C   0  0  0  0  0  0  0  0  0  0  0  0
   53.1350   81.6810   24.8010 N   0  0  0  0  0  0  0  0  0  0  0  0
   55.1720   80.1170   26.5540 C   0  0  0  0  0  0  0  0  0  0  0  0
   56.0540   81.1470   26.3130 C   0  0  0  0  0  0  0  0  0  0  0  0
   56.0490   82.1080   25.3970 O   0  0  0  0  0  0  0  0  0  0  0  0
   57.0590   81.0370   27.2570 N   0  0  0  0  0  0  0  0  0  0  0  0
   56.8300   79.9690   28.1010 C   0  0  0  0  0  0  0  0  0  0  0  0
   57.5380   79.4650   29.1910 C   0  0  0  0  0  0  0  0  0  0  0  0
   56.9880   78.3400   29.8250 C   0  0  0  0  0  0  0  0  0  0  0  0
   55.7930   77.7550   29.3860 C   0  0  0  0  0  0  0  0  0  0  0  0
   55.3500   76.6840   30.0620 F   0  0  0  0  0  0  0  0  0  0  0  0
   55.0840   78.2630   28.2920 C   0  0  0  0  0  0  0  0  0  0  0  0
   55.6500   79.3890   27.6670 C   0  0  0  0  0  0  0  0  0  0  0  0
   50.3680   76.0400   25.7040 H   0  0  0  0  0  0  0  0  0  0  0  0
   51.4580   75.7280   24.5340 H   0  0  0  0  0  0  0  0  0  0  0  0
   52.1567   74.1987   26.7549 H   0  0  0  0  0  0  0  0  0  0  0  0
   53.0692   75.5309   25.9392 H   0  0  0  0  0  0  0  0  0  0  0  0
   51.1680   76.9680   27.2765 H   0  0  0  0  0  0  0  0  0  0  0  0
   51.3977   75.5669   28.3994 H   0  0  0  0  0  0  0  0  0  0  0  0
   53.5609   76.2898   28.9948 H   0  0  0  0  0  0  0  0  0  0  0  0
   52.3754   78.2765   25.9729 H   0  0  0  0  0  0  0  0  0  0  0  0
   52.9901   78.8074   23.2176 H   0  0  0  0  0  0  0  0  0  0  0  0
   52.0051   80.9134   21.8117 H   0  0  0  0  0  0  0  0  0  0  0  0
   52.2579   83.0899   23.3500 H   0  0  0  0  0  0  0  0  0  0  0  0
   53.3740   82.3010   25.5640 H   0  0  0  0  0  0  0  0  0  0  0  0
   56.5020   81.8110   24.5910 H   0  0  0  0  0  0  0  0  0  0  0  0
   57.8550   81.6520   27.3310 H   0  0  0  0  0  0  0  0  0  0  0  0
   58.4765   79.9239   29.5354 H   0  0  0  0  0  0  0  0  0  0  0  0
   57.5096   77.9056   30.6905 H   0  0  0  0  0  0  0  0  0  0  0  0
  1  2  1  0
  2  3  1  0
  3  4  1  0
  4  5  2  3
  5  6  1  0
  6  7  2  0
  7  8  1  0
  8  9  2  0
  9 10  1  0
 10 11  2  0
 11 12  1  0
  7 13  1  0
 13 14  2  0
 14 15  1  0
 14 16  1  0
 16 17  1  0
 17 18  2  0
 18 19  1  0
 19 20  2  0
 20 21  1  0
 20 22  1  0
 22 23  2  0
 22  5  1  0
 12  8  1  0
 23 13  1  0
 23 17  1  0
  1 24  1  0
  1 25  1  0
  2 26  1  0
  2 27  1  0
  3 28  1  0
  3 29  1  0
  4 30  1  0
  6 31  1  0
  9 32  1  0
 10 33  1  0
 11 34  1  0
 12 35  1  0
 15 36  1  0
 16 37  1  0
 18 38  1  0
 19 39  1  0
M  END
>  <meeko>  (1) 
{"is_sidechain": false}

>  <smiles>  (1) 
NCCC=c1cc(-c2ccc[nH]2)c2c(O)[nH]c3ccc(F)c1c32

>  <vina_score>  (1) 
-9.307

>  <job_id>  (1) 
f64656ac01f74738

$$$$
