
     RDKit          3D

 38 39  0  0  0  0  0  0  0  0999 V2000
   52.6650   81.6910   21.5870 C   0  0  0  0  0  0  0  0  0  0  0  0
   51.2970   81.6470   22.2190 C   0  0  0  0  0  0  0  0  0  0  0  0
   50.3100   82.1020   21.6390 O   0  0  0  0  0  0  0  0  0  0  0  0
   51.1890   81.0280   23.5970 C   0  0  0  0  0  0  0  0  0  0  0  0
   52.5060   80.9910   24.3260 C   0  0  0  0  0  0  0  0  0  0  0  0
   53.2130   79.7920   24.4670 C   0  0  0  0  0  0  0  0  0  0  0  0
   54.4450   79.7660   25.1320 C   0  0  0  0  0  0  0  0  0  0  0  0
   54.9910   80.9350   25.6620 C   0  0  0  0  0  0  0  0  0  0  0  0
   56.2190   80.9860   26.3520 N   0  0  0  0  0  0  0  0  0  0  0  0
   56.6390   80.1630   27.3860 C   0  0  0  0  0  0  0  0  0  0  0  0
   56.0280   79.2060   27.8380 O   0  0  0  0  0  0  0  0  0  0  0  0
   57.8310   80.6310   27.9060 N   0  0  0  0  0  0  0  0  0  0  0  0
   58.5390   79.8730   28.8140 C   0  0  0  0  0  0  0  0  0  0  0  0
   58.9350   78.7320   28.5990 O   0  0  0  0  0  0  0  0  0  0  0  0
   59.0080   80.5990   30.0260 C   0  0  0  0  0  0  0  0  0  0  0  0
   58.5520   80.2560   31.3050 C   0  0  0  0  0  0  0  0  0  0  0  0
   59.0100   80.9630   32.4190 C   0  0  0  0  0  0  0  0  0  0  0  0
   59.9260   82.0020   32.2590 C   0  0  0  0  0  0  0  0  0  0  0  0
   60.3970   82.3330   30.9890 C   0  0  0  0  0  0  0  0  0  0  0  0
   59.9440   81.6300   29.8720 C   0  0  0  0  0  0  0  0  0  0  0  0
   54.2790   82.1330   25.5310 C   0  0  0  0  0  0  0  0  0  0  0  0
   53.0480   82.1620   24.8680 C   0  0  0  0  0  0  0  0  0  0  0  0
   53.4323   81.7157   22.3749 H   0  0  0  0  0  0  0  0  0  0  0  0
   52.8093   80.7970   20.9625 H   0  0  0  0  0  0  0  0  0  0  0  0
   52.7516   82.5924   20.9625 H   0  0  0  0  0  0  0  0  0  0  0  0
   50.4748   81.6167   24.1915 H   0  0  0  0  0  0  0  0  0  0  0  0
   50.8535   79.9885   23.4673 H   0  0  0  0  0  0  0  0  0  0  0  0
   52.7976   78.8619   24.0520 H   0  0  0  0  0  0  0  0  0  0  0  0
   54.9873   78.8148   25.2374 H   0  0  0  0  0  0  0  0  0  0  0  0
   56.9470   81.5410   25.9260 H   0  0  0  0  0  0  0  0  0  0  0  0
   57.8070   81.6250   28.0690 H   0  0  0  0  0  0  0  0  0  0  0  0
   57.8348   79.4317   31.4319 H   0  0  0  0  0  0  0  0  0  0  0  0
   58.6477   80.6999   33.4237 H   0  0  0  0  0  0  0  0  0  0  0  0
   60.2782   82.5624   33.1376 H   0  0  0  0  0  0  0  0  0  0  0  0
   61.1255   83.1482   30.8677 H   0  0  0  0  0  0  0  0  0  0  0  0
   60.3217   81.8852   28.8709 H   0  0  0  0  0  0  0  0  0  0  0  0
   54.6918   83.0608   25.9537 H   0  0  0  0  0  0  0  0  0  0  0  0
   52.5018   83.1120   24.7718 H   0  0  0  0  0  0  0  0  0  0  0  0
  1  2  1  0
  2  3  2  0
  2  4  1  0
  4  5  1  0
  5  6  1  0
  6  7  2  0
  7  8  1  0
  8  9  1  0
  9 10  1  0
 10 11  2  0
 10 12  1  0
 12 13  1  0
 13 14  2  0
 13 15  1  0
 15 16  2  0
 16 17  1  0
 17 18  2  0
 18 19  1  0
 19 20  2  0
  8 21  2  0
 21 22  1  0
 22  5  2  0
 20 15  1  0
  1 23  1  0
  1 24  1  0
  1 25  1  0
  4 26  1  0
  4 27  1  0
  6 28  1  0
  7 29  1  0
  9 30  1  0
 12 31  1  0
 16 32  1  0
 17 33  1  0
 18 34  1  0
 19 35  1  0
 20 36  1  0
 21 37  1  0
 22 38  1  0
M  END
>  <meeko>  (1) 
{"is_sidechain": false}

>  <smiles>  (1) 
CC(=O)Cc1ccc(NC(=O)NC(=O)c2ccccc2)cc1

>  <vina_score>  (1) 
-8.130

>  <job_id>  (1) 
f674ea2250cd1edf

$$$$
