
     RDKit          3D

 49 51  0  0  0  0  0  0  0  0999 V2000
   51.7040   81.4320   22.2860 C   0  0  0  0  0  0  0  0  0  0  0  0
   52.4710   82.0170   23.4460 C   0  0  0  0  0  0  0  0  0  0  0  0
   52.5590   83.2370   23.5830 O   0  0  0  0  0  0  0  0  0  0  0  0
   53.0620   81.1220   24.3180 N   0  0  0  0  0  0  0  0  0  0  0  0
   53.0300   79.6610   24.1560 C   0  0  0  0  0  0  0  0  0  0  0  0
   54.0490   78.9400   25.0580 C   0  0  0  0  0  0  0  0  0  0  0  0
   53.8180   79.3000   26.4660 N   0  0  0  0  0  0  0  0  0  0  0  0
   54.5380   78.6270   27.4630 C   0  0  0  0  0  0  0  0  0  0  0  0
   55.8800   78.9500   27.7540 C   0  0  0  0  0  0  0  0  0  0  0  0
   56.6300   78.3010   28.7510 C   0  0  0  0  0  0  0  0  0  0  0  0
   57.9370   78.7330   29.0010 N   0  0  0  0  0  0  0  0  0  0  0  0
   58.3140   80.1310   28.8110 C   0  0  0  0  0  0  0  0  0  0  0  0
   58.9300   80.7050   30.0610 C   0  0  0  0  0  0  0  0  0  0  0  0
   58.5510   80.2530   31.3330 C   0  0  0  0  0  0  0  0  0  0  0  0
   59.1430   80.7880   32.4810 C   0  0  0  0  0  0  0  0  0  0  0  0
   60.1210   81.7760   32.3710 C   0  0  0  0  0  0  0  0  0  0  0  0
   60.5120   82.2270   31.1130 C   0  0  0  0  0  0  0  0  0  0  0  0
   59.9190   81.6880   29.9730 C   0  0  0  0  0  0  0  0  0  0  0  0
   60.3180   82.1300   28.7710 F   0  0  0  0  0  0  0  0  0  0  0  0
   55.9760   77.3480   29.5290 C   0  0  0  0  0  0  0  0  0  0  0  0
   54.6520   76.9940   29.2640 C   0  0  0  0  0  0  0  0  0  0  0  0
   53.9330   77.6050   28.2240 C   0  0  0  0  0  0  0  0  0  0  0  0
   52.5220   77.1460   27.9750 C   0  0  0  0  0  0  0  0  0  0  0  0
   53.5840   80.7410   26.7390 C   0  0  0  0  0  0  0  0  0  0  0  0
   53.7840   81.6240   25.4920 C   0  0  0  0  0  0  0  0  0  0  0  0
   50.8836   80.8062   22.6672 H   0  0  0  0  0  0  0  0  0  0  0  0
   51.2899   82.2457   21.6725 H   0  0  0  0  0  0  0  0  0  0  0  0
   52.3793   80.8175   21.6725 H   0  0  0  0  0  0  0  0  0  0  0  0
   52.0213   79.3012   24.4072 H   0  0  0  0  0  0  0  0  0  0  0  0
   53.2938   79.4369   23.1119 H   0  0  0  0  0  0  0  0  0  0  0  0
   53.9371   77.8524   24.9370 H   0  0  0  0  0  0  0  0  0  0  0  0
   55.0658   79.2448   24.7695 H   0  0  0  0  0  0  0  0  0  0  0  0
   56.3636   79.7487   27.1725 H   0  0  0  0  0  0  0  0  0  0  0  0
   58.2890   78.3840   29.8890 H   0  0  0  0  0  0  0  0  0  0  0  0
   59.0421   80.1976   27.9892 H   0  0  0  0  0  0  0  0  0  0  0  0
   57.4072   80.7068   28.5740 H   0  0  0  0  0  0  0  0  0  0  0  0
   57.7824   79.4719   31.4284 H   0  0  0  0  0  0  0  0  0  0  0  0
   58.8363   80.4284   33.4743 H   0  0  0  0  0  0  0  0  0  0  0  0
   60.5825   82.1981   33.2759 H   0  0  0  0  0  0  0  0  0  0  0  0
   61.2846   83.0044   31.0196 H   0  0  0  0  0  0  0  0  0  0  0  0
   56.5098   76.8684   30.3627 H   0  0  0  0  0  0  0  0  0  0  0  0
   54.1641   76.2241   29.8797 H   0  0  0  0  0  0  0  0  0  0  0  0
   52.0149   76.9810   28.9371 H   0  0  0  0  0  0  0  0  0  0  0  0
   51.9819   77.9148   27.4029 H   0  0  0  0  0  0  0  0  0  0  0  0
   52.5376   76.2066   27.4029 H   0  0  0  0  0  0  0  0  0  0  0  0
   52.5520   80.8679   27.0979 H   0  0  0  0  0  0  0  0  0  0  0  0
   54.3195   81.0595   27.4924 H   0  0  0  0  0  0  0  0  0  0  0  0
   53.4243   82.6386   25.7185 H   0  0  0  0  0  0  0  0  0  0  0  0
   54.8569   81.6160   25.2493 H   0  0  0  0  0  0  0  0  0  0  0  0
  1  2  1  0
  2  3  2  0
  2  4  1  0
  4  5  1  0
  5  6  1  0
  6  7  1  0
  7  8  1  0
  8  9  1  0
  9 10  2  0
 10 11  1  0
 11 12  1  0
 12 13  1  0
 13 14  2  0
 14 15  1  0
 15 16  2  0
 16 17  1  0
 17 18  2  0
 18 19  1  0
 10 20  1  0
 20 21  2  0
 21 22  1  0
 22 23  1  0
  7 24  1  0
 24 25  1  0
 25  4  1  0
 22  8  2  0
 18 13  1  0
  1 26  1  0
  1 27  1  0
  1 28  1  0
  5 29  1  0
  5 30  1  0
  6 31  1  0
  6 32  1  0
  9 33  1  0
 11 34  1  0
 12 35  1  0
 12 36  1  0
 14 37  1  0
 15 38  1  0
 16 39  1  0
 17 40  1  0
 20 41  1  0
 21 42  1  0
 23 43  1  0
 23 44  1  0
 23 45  1  0
 24 46  1  0
 24 47  1  0
 25 48  1  0
 25 49  1  0
M  END
>  <meeko>  (1) 
{"is_sidechain": false}

>  <smiles>  (1) 
CC(=O)N1CCN(c2cc(NCc3ccccc3F)ccc2C)CC1

>  <vina_score>  (1) 
-9.421

>  <job_id>  (1) 
f680abad63c839e9

$$$$
