
     RDKit          3D

 48 49  0  0  0  0  0  0  0  0999 V2000
   53.6860   78.7320   24.2700 C   0  0  0  0  0  0  0  0  0  0  0  0
   53.3590   80.1090   24.8390 C   0  0  1  0  0  0  0  0  0  0  0  0
   51.9450   80.3210   24.7410 O   0  0  0  0  0  0  0  0  0  0  0  0
   53.8300   80.2640   26.3100 C   0  0  1  0  0  0  0  0  0  0  0  0
   53.3290   81.5880   26.8950 C   0  0  0  0  0  0  0  0  0  0  0  0
   53.2860   79.1440   27.1040 N   0  0  0  0  0  0  0  0  0  0  0  0
   54.1980   78.3860   27.8630 C   0  0  0  0  0  0  0  0  0  0  0  0
   55.4660   78.8240   28.0000 N   0  0  0  0  0  0  0  0  0  0  0  0
   56.3460   78.0740   28.6860 C   0  0  0  0  0  0  0  0  0  0  0  0
   57.6250   78.6160   28.7800 N   0  0  0  0  0  0  0  0  0  0  0  0
   58.2090   79.6030   29.5800 C   0  0  0  0  0  0  0  0  0  0  0  0
   57.9890   79.7250   30.9580 C   0  0  0  0  0  0  0  0  0  0  0  0
   58.6030   80.7340   31.7080 C   0  0  0  0  0  0  0  0  0  0  0  0
   59.4550   81.6400   31.0770 C   0  0  0  0  0  0  0  0  0  0  0  0
   60.2400   82.9250   32.0330 S   0  0  0  0  0  0  0  0  0  0  0  0
   59.2770   83.2290   33.1980 N   0  0  0  0  0  0  0  0  0  0  0  0
   60.6930   83.9300   31.0910 O   0  0  0  0  0  0  0  0  0  0  0  0
   61.6860   82.1240   32.6800 C   0  0  0  0  0  0  0  0  0  0  0  0
   62.9150   82.5100   31.8850 C   0  0  0  0  0  0  0  0  0  0  0  0
   62.9060   81.8060   30.6450 O   0  0  0  0  0  0  0  0  0  0  0  0
   59.6880   81.5520   29.7070 C   0  0  0  0  0  0  0  0  0  0  0  0
   59.0670   80.5370   28.9710 C   0  0  0  0  0  0  0  0  0  0  0  0
   56.0310   76.8970   29.2400 N   0  0  0  0  0  0  0  0  0  0  0  0
   54.7670   76.4640   29.0790 C   0  0  0  0  0  0  0  0  0  0  0  0
   53.8050   77.1670   28.3950 C   0  0  0  0  0  0  0  0  0  0  0  0
   52.0570   76.4730   28.2310 Br  0  0  0  0  0  0  0  0  0  0  0  0
   53.8540   78.0246   25.0955 H   0  0  0  0  0  0  0  0  0  0  0  0
   52.8461   78.3817   23.6521 H   0  0  0  0  0  0  0  0  0  0  0  0
   54.5938   78.7967   23.6521 H   0  0  0  0  0  0  0  0  0  0  0  0
   53.9011   80.8663   24.2537 H   0  0  0  0  0  0  0  0  0  0  0  0
   51.7000   80.8210   25.5420 H   0  0  0  0  0  0  0  0  0  0  0  0
   54.9295   80.2573   26.3408 H   0  0  0  0  0  0  0  0  0  0  0  0
   53.3492   81.5345   27.9935 H   0  0  0  0  0  0  0  0  0  0  0  0
   53.9790   82.4080   26.5558 H   0  0  0  0  0  0  0  0  0  0  0  0
   52.2990   81.7723   26.5558 H   0  0  0  0  0  0  0  0  0  0  0  0
   52.5250   79.4510   27.7090 H   0  0  0  0  0  0  0  0  0  0  0  0
   58.2230   78.1520   28.1140 H   0  0  0  0  0  0  0  0  0  0  0  0
   57.3191   79.0122   31.4613 H   0  0  0  0  0  0  0  0  0  0  0  0
   58.4148   80.8122   32.7890 H   0  0  0  0  0  0  0  0  0  0  0  0
   58.4060   83.6310   32.8470 H   0  0  0  0  0  0  0  0  0  0  0  0
   61.8259   82.4244   33.7289 H   0  0  0  0  0  0  0  0  0  0  0  0
   61.5476   81.0351   32.6090 H   0  0  0  0  0  0  0  0  0  0  0  0
   62.9055   83.5933   31.6941 H   0  0  0  0  0  0  0  0  0  0  0  0
   63.8211   82.2513   32.4526 H   0  0  0  0  0  0  0  0  0  0  0  0
   63.3230   82.3890   29.9860 H   0  0  0  0  0  0  0  0  0  0  0  0
   60.3531   82.2727   29.2088 H   0  0  0  0  0  0  0  0  0  0  0  0
   59.2543   80.4675   27.8893 H   0  0  0  0  0  0  0  0  0  0  0  0
   54.4891   75.4948   29.5188 H   0  0  0  0  0  0  0  0  0  0  0  0
  1  2  1  0
  2  3  1  0
  2  4  1  0
  4  5  1  0
  4  6  1  0
  6  7  1  0
  7  8  2  0
  8  9  1  0
  9 10  1  0
 10 11  1  0
 11 12  1  0
 12 13  2  0
 13 14  1  0
 14 15  1  0
 15 16  2  0
 15 17  2  0
 15 18  1  0
 18 19  1  0
 19 20  1  0
 14 21  2  0
 21 22  1  0
  9 23  2  0
 23 24  1  0
 24 25  2  0
 25 26  1  0
 25  7  1  0
 22 11  2  0
  1 27  1  0
  1 28  1  0
  1 29  1  0
  2 30  1  6
  3 31  1  0
  4 32  1  6
  5 33  1  0
  5 34  1  0
  5 35  1  0
  6 36  1  0
 10 37  1  0
 12 38  1  0
 13 39  1  0
 16 40  1  0
 18 41  1  0
 18 42  1  0
 19 43  1  0
 19 44  1  0
 20 45  1  0
 21 46  1  0
 22 47  1  0
 24 48  1  0
M  END
>  <meeko>  (1) 
{"is_sidechain": false}

>  <smiles>  (1) 
C[C@@H](O)[C@@H](C)Nc1nc(Nc2ccc(S(=N)(=O)CCO)cc2)ncc1Br

>  <vina_score>  (1) 
-7.513

>  <job_id>  (1) 
f6b9b2504101a627

$$$$
