
     RDKit          3D

 54 56  0  0  0  0  0  0  0  0999 V2000
   52.5600   82.4850   25.1160 C   0  0  0  0  0  0  0  0  0  0  0  0
   52.6840   80.9660   24.9470 C   0  0  0  0  0  0  0  0  0  0  0  0
   52.5780   80.5960   23.4620 C   0  0  0  0  0  0  0  0  0  0  0  0
   53.8840   80.3480   25.5420 N   0  0  0  0  0  0  0  0  0  0  0  0
   54.9390   81.2970   25.9450 C   0  0  0  0  0  0  0  0  0  0  0  0
   56.1920   80.5730   26.4940 C   0  0  0  0  0  0  0  0  0  0  0  0
   55.8740   79.6920   27.6390 N   0  0  0  0  0  0  0  0  0  0  0  0
   57.0600   78.9520   28.0980 C   0  0  0  0  0  0  0  0  0  0  0  0
   57.8630   79.6940   29.1460 C   0  0  0  0  0  0  0  0  0  0  0  0
   57.5690   79.5530   30.5040 C   0  0  0  0  0  0  0  0  0  0  0  0
   58.3200   80.2320   31.4690 C   0  0  0  0  0  0  0  0  0  0  0  0
   59.3960   81.0640   31.1180 C   0  0  0  0  0  0  0  0  0  0  0  0
   60.1150   81.7250   32.1320 N   0  0  0  0  0  0  0  0  0  0  0  0
   60.2880   83.1660   31.8680 C   0  0  0  0  0  0  0  0  0  0  0  0
   61.3760   83.7340   32.7770 C   0  0  0  0  0  0  0  0  0  0  0  0
   61.1290   83.4070   34.2470 C   0  0  0  0  0  0  0  0  0  0  0  0
   60.0600   84.1960   34.7700 O   0  0  0  0  0  0  0  0  0  0  0  0
   60.8560   81.9210   34.4600 C   0  0  0  0  0  0  0  0  0  0  0  0
   59.7700   81.4000   33.5230 C   0  0  0  0  0  0  0  0  0  0  0  0
   59.6740   81.2030   29.7510 C   0  0  0  0  0  0  0  0  0  0  0  0
   58.9260   80.5250   28.7780 C   0  0  0  0  0  0  0  0  0  0  0  0
   54.8100   78.7510   27.2360 C   0  0  0  0  0  0  0  0  0  0  0  0
   53.5590   79.4750   26.6870 C   0  0  0  0  0  0  0  0  0  0  0  0
   52.5397   82.7343   26.1872 H   0  0  0  0  0  0  0  0  0  0  0  0
   53.4209   82.9783   24.6410 H   0  0  0  0  0  0  0  0  0  0  0  0
   51.6305   82.8321   24.6410 H   0  0  0  0  0  0  0  0  0  0  0  0
   51.8445   80.5479   25.5219 H   0  0  0  0  0  0  0  0  0  0  0  0
   52.2762   79.5425   23.3673 H   0  0  0  0  0  0  0  0  0  0  0  0
   51.8275   81.2375   22.9770 H   0  0  0  0  0  0  0  0  0  0  0  0
   53.5543   80.7428   22.9770 H   0  0  0  0  0  0  0  0  0  0  0  0
   55.2303   81.8966   25.0700 H   0  0  0  0  0  0  0  0  0  0  0  0
   54.5356   81.9327   26.7469 H   0  0  0  0  0  0  0  0  0  0  0  0
   56.6295   79.9636   25.6895 H   0  0  0  0  0  0  0  0  0  0  0  0
   56.8975   81.3404   26.8453 H   0  0  0  0  0  0  0  0  0  0  0  0
   56.7294   77.9940   28.5256 H   0  0  0  0  0  0  0  0  0  0  0  0
   57.7146   78.8135   27.2249 H   0  0  0  0  0  0  0  0  0  0  0  0
   56.7394   78.9022   30.8174 H   0  0  0  0  0  0  0  0  0  0  0  0
   58.0611   80.1113   32.5313 H   0  0  0  0  0  0  0  0  0  0  0  0
   60.5779   83.3120   30.8170 H   0  0  0  0  0  0  0  0  0  0  0  0
   59.3402   83.6872   32.0682 H   0  0  0  0  0  0  0  0  0  0  0  0
   62.3452   83.3086   32.4776 H   0  0  0  0  0  0  0  0  0  0  0  0
   61.3682   84.8287   32.6690 H   0  0  0  0  0  0  0  0  0  0  0  0
   62.0489   83.6557   34.7965 H   0  0  0  0  0  0  0  0  0  0  0  0
   60.4210   85.0250   35.1230 H   0  0  0  0  0  0  0  0  0  0  0  0
   61.7837   81.3594   34.2757 H   0  0  0  0  0  0  0  0  0  0  0  0
   60.5072   81.7841   35.4942 H   0  0  0  0  0  0  0  0  0  0  0  0
   59.6855   80.3088   33.6329 H   0  0  0  0  0  0  0  0  0  0  0  0
   58.8109   81.8737   33.7796 H   0  0  0  0  0  0  0  0  0  0  0  0
   60.4981   81.8592   29.4344 H   0  0  0  0  0  0  0  0  0  0  0  0
   59.1778   80.6480   27.7143 H   0  0  0  0  0  0  0  0  0  0  0  0
   55.2046   78.0856   26.4540 H   0  0  0  0  0  0  0  0  0  0  0  0
   54.5054   78.1867   28.1298 H   0  0  0  0  0  0  0  0  0  0  0  0
   52.8263   78.7215   26.3625 H   0  0  0  0  0  0  0  0  0  0  0  0
   53.1512   80.1059   27.4906 H   0  0  0  0  0  0  0  0  0  0  0  0
  1  2  1  0
  2  3  1  0
  2  4  1  0
  4  5  1  0
  5  6  1  0
  6  7  1  0
  7  8  1  0
  8  9  1  0
  9 10  1  0
 10 11  2  0
 11 12  1  0
 12 13  1  0
 13 14  1  0
 14 15  1  0
 15 16  1  0
 16 17  1  0
 16 18  1  0
 18 19  1  0
 12 20  2  0
 20 21  1  0
  7 22  1  0
 22 23  1  0
 23  4  1  0
 21  9  2  0
 19 13  1  0
  1 24  1  0
  1 25  1  0
  1 26  1  0
  2 27  1  0
  3 28  1  0
  3 29  1  0
  3 30  1  0
  5 31  1  0
  5 32  1  0
  6 33  1  0
  6 34  1  0
  8 35  1  0
  8 36  1  0
 10 37  1  0
 11 38  1  0
 14 39  1  0
 14 40  1  0
 15 41  1  0
 15 42  1  0
 16 43  1  0
 17 44  1  0
 18 45  1  0
 18 46  1  0
 19 47  1  0
 19 48  1  0
 20 49  1  0
 21 50  1  0
 22 51  1  0
 22 52  1  0
 23 53  1  0
 23 54  1  0
M  END
>  <meeko>  (1) 
{"is_sidechain": false}

>  <smiles>  (1) 
CC(C)N1CCN(Cc2ccc(N3CCC(O)CC3)cc2)CC1

>  <vina_score>  (1) 
-7.069

>  <job_id>  (1) 
f6ecae47784dbc38

$$$$
