
     RDKit          3D

 48 51  0  0  0  0  0  0  0  0999 V2000
   58.8940   80.2190   28.3950 O   0  0  0  0  0  0  0  0  0  0  0  0
   58.6170   80.0250   29.5730 C   0  0  0  0  0  0  0  0  0  0  0  0
   57.4760   79.4240   30.0500 N   0  0  0  0  0  0  0  0  0  0  0  0
   56.4340   78.9170   29.2920 C   0  0  0  0  0  0  0  0  0  0  0  0
   55.8410   77.8430   29.8390 N   0  0  0  0  0  0  0  0  0  0  0  0
   54.8220   77.3010   29.1450 C   0  0  0  0  0  0  0  0  0  0  0  0
   54.3860   77.7790   27.9300 C   0  0  0  0  0  0  0  0  0  0  0  0
   55.0480   78.9000   27.4580 C   0  0  0  0  0  0  0  0  0  0  0  0
   56.0770   79.4620   28.1270 N   0  0  0  0  0  0  0  0  0  0  0  0
   54.6740   79.5120   26.1250 C   0  0  0  0  0  0  0  0  0  0  0  0
   53.3650   79.0690   25.6310 N   0  0  0  0  0  0  0  0  0  0  0  0
   52.9440   79.7140   24.4690 C   0  0  0  0  0  0  0  0  0  0  0  0
   52.3970   79.1260   23.5420 O   0  0  0  0  0  0  0  0  0  0  0  0
   53.3100   81.1470   24.2670 C   0  0  0  0  0  0  0  0  0  0  0  0
   52.4930   82.0540   23.3820 C   0  0  0  0  0  0  0  0  0  0  0  0
   52.6130   82.3440   24.8540 C   0  0  0  0  0  0  0  0  0  0  0  0
   53.1820   77.6250   25.7370 C   0  0  0  0  0  0  0  0  0  0  0  0
   53.2240   77.1790   27.1990 C   0  0  0  0  0  0  0  0  0  0  0  0
   59.5570   80.4590   30.7080 C   0  0  0  0  0  0  0  0  0  0  0  0
   60.3420   81.7320   30.3270 C   0  0  0  0  0  0  0  0  0  0  0  0
   59.7720   82.9830   30.9880 C   0  0  0  0  0  0  0  0  0  0  0  0
   59.7900   82.8840   32.5130 C   0  0  0  0  0  0  0  0  0  0  0  0
   59.5880   81.4610   33.0320 C   0  0  0  0  0  0  0  0  0  0  0  0
   58.8040   80.6070   32.0430 C   0  0  0  0  0  0  0  0  0  0  0  0
   57.3230   79.3230   31.0400 H   0  0  0  0  0  0  0  0  0  0  0  0
   54.3092   76.4271   29.5732 H   0  0  0  0  0  0  0  0  0  0  0  0
   54.6534   80.6062   26.2364 H   0  0  0  0  0  0  0  0  0  0  0  0
   55.4269   79.1847   25.3929 H   0  0  0  0  0  0  0  0  0  0  0  0
   54.3472   80.7843   24.3180 H   0  0  0  0  0  0  0  0  0  0  0  0
   52.9933   82.7054   22.6503 H   0  0  0  0  0  0  0  0  0  0  0  0
   51.6561   81.9115   22.6825 H   0  0  0  0  0  0  0  0  0  0  0  0
   53.2004   83.2082   25.1979 H   0  0  0  0  0  0  0  0  0  0  0  0
   51.8988   82.5018   25.6756 H   0  0  0  0  0  0  0  0  0  0  0  0
   52.2082   77.3520   25.3044 H   0  0  0  0  0  0  0  0  0  0  0  0
   53.9963   77.1251   25.1920 H   0  0  0  0  0  0  0  0  0  0  0  0
   52.2924   77.4913   27.6935 H   0  0  0  0  0  0  0  0  0  0  0  0
   53.3347   76.0848   27.2199 H   0  0  0  0  0  0  0  0  0  0  0  0
   60.2982   79.6599   30.8566 H   0  0  0  0  0  0  0  0  0  0  0  0
   61.3885   81.6103   30.6434 H   0  0  0  0  0  0  0  0  0  0  0  0
   60.2643   81.8619   29.2375 H   0  0  0  0  0  0  0  0  0  0  0  0
   60.3731   83.8518   30.6815 H   0  0  0  0  0  0  0  0  0  0  0  0
   58.7253   83.0898   30.6670 H   0  0  0  0  0  0  0  0  0  0  0  0
   60.7613   83.2523   32.8747 H   0  0  0  0  0  0  0  0  0  0  0  0
   58.9503   83.4880   32.8872 H   0  0  0  0  0  0  0  0  0  0  0  0
   60.5723   80.9995   33.1997 H   0  0  0  0  0  0  0  0  0  0  0  0
   59.0139   81.5156   33.9687 H   0  0  0  0  0  0  0  0  0  0  0  0
   58.6470   79.6089   32.4779 H   0  0  0  0  0  0  0  0  0  0  0  0
   57.8420   81.1022   31.8447 H   0  0  0  0  0  0  0  0  0  0  0  0
  1  2  2  0
  2  3  1  0
  3  4  1  0
  4  5  2  0
  5  6  1  0
  6  7  2  0
  7  8  1  0
  8  9  2  0
  8 10  1  0
 10 11  1  0
 11 12  1  0
 12 13  2  0
 12 14  1  0
 14 15  1  0
 15 16  1  0
 11 17  1  0
 17 18  1  0
  2 19  1  0
 19 20  1  0
 20 21  1  0
 21 22  1  0
 22 23  1  0
 23 24  1  0
  9  4  1  0
 16 14  1  0
 24 19  1  0
 18  7  1  0
  3 25  1  0
  6 26  1  0
 10 27  1  0
 10 28  1  0
 14 29  1  0
 15 30  1  0
 15 31  1  0
 16 32  1  0
 16 33  1  0
 17 34  1  0
 17 35  1  0
 18 36  1  0
 18 37  1  0
 19 38  1  0
 20 39  1  0
 20 40  1  0
 21 41  1  0
 21 42  1  0
 22 43  1  0
 22 44  1  0
 23 45  1  0
 23 46  1  0
 24 47  1  0
 24 48  1  0
M  END
>  <meeko>  (1) 
{"is_sidechain": false}

>  <smiles>  (1) 
O=C(Nc1ncc2c(n1)CN(C(=O)C1CC1)CC2)C1CCCCC1

>  <vina_score>  (1) 
-7.881

>  <job_id>  (1) 
f7365d492c10bdd4

$$$$
