
     RDKit          3D

 75 80  0  0  0  0  0  0  0  0999 V2000
   51.8830   82.2090   21.6450 C   0  0  0  0  0  0  0  0  0  0  0  0
   52.9350   81.3580   22.0750 O   0  0  0  0  0  0  0  0  0  0  0  0
   52.9350   81.1310   23.4890 C   0  0  0  0  0  0  0  0  0  0  0  0
   52.9470   79.6340   23.8620 C   0  0  0  0  0  0  0  0  0  0  0  0
   53.5250   79.3290   25.1860 N   0  0  0  0  0  0  0  0  0  0  0  0
   53.2030   77.9430   25.5880 C   0  0  0  0  0  0  0  0  0  0  0  0
   53.3170   77.6600   27.1090 C   0  0  0  0  0  0  0  0  0  0  0  0
   54.1940   78.5760   27.8610 N   0  0  0  0  0  0  0  0  0  0  0  0
   55.6100   78.4400   27.4700 C   0  0  0  0  0  0  0  0  0  0  0  0
   56.5690   79.0900   28.4470 C   0  0  0  0  0  0  0  0  0  0  0  0
   57.4650   80.0760   28.0200 C   0  0  0  0  0  0  0  0  0  0  0  0
   58.3410   80.6830   28.9280 C   0  0  0  0  0  0  0  0  0  0  0  0
   58.3400   80.3180   30.2820 C   0  0  0  0  0  0  0  0  0  0  0  0
   59.2560   80.9430   31.2310 C   0  0  0  0  0  0  0  0  0  0  0  0
   60.0270   80.2320   32.1440 N   0  0  0  0  0  0  0  0  0  0  0  0
   60.8260   80.9940   32.9430 N   0  0  0  0  0  0  0  0  0  0  0  0
   60.5290   82.2160   32.5350 C   0  0  0  0  0  0  0  0  0  0  0  0
   59.5800   82.2460   31.5060 C   0  0  0  0  0  0  0  0  0  0  0  0
   59.3150   83.6070   31.1190 C   0  0  0  0  0  0  0  0  0  0  0  0
   58.5600   84.0470   30.2700 O   0  0  0  0  0  0  0  0  0  0  0  0
   60.2000   84.4230   32.0160 C   0  0  0  0  0  0  0  0  0  0  0  0
   60.3430   85.7980   32.0650 C   0  0  0  0  0  0  0  0  0  0  0  0
   59.5840   86.5930   31.1820 N   0  0  0  0  0  0  0  0  0  0  0  0
   58.2940   87.0600   31.3580 C   0  0  0  0  0  0  0  0  0  0  0  0
   57.5720   86.8170   32.3180 O   0  0  0  0  0  0  0  0  0  0  0  0
   57.9140   87.8540   30.2720 N   0  0  0  0  0  0  0  0  0  0  0  0
   56.6410   88.4630   30.2680 N   0  0  0  0  0  0  0  0  0  0  0  0
   55.9050   88.1700   29.0260 C   0  0  0  0  0  0  0  0  0  0  0  0
   54.7910   89.1960   28.7890 C   0  0  0  0  0  0  0  0  0  0  0  0
   55.2970   90.5250   28.5960 O   0  0  0  0  0  0  0  0  0  0  0  0
   56.5220   90.7730   29.3000 C   0  0  0  0  0  0  0  0  0  0  0  0
   56.6900   89.9090   30.5570 C   0  0  0  0  0  0  0  0  0  0  0  0
   61.2580   86.2890   33.0050 C   0  0  0  0  0  0  0  0  0  0  0  0
   61.9830   85.4160   33.8540 C   0  0  0  0  0  0  0  0  0  0  0  0
   61.8230   84.0280   33.7920 C   0  0  0  0  0  0  0  0  0  0  0  0
   60.9270   83.5500   32.8650 C   0  0  0  0  0  0  0  0  0  0  0  0
   57.4350   79.3380   30.7070 C   0  0  0  0  0  0  0  0  0  0  0  0
   56.5600   78.7310   29.8010 C   0  0  0  0  0  0  0  0  0  0  0  0
   53.7260   79.9620   27.6300 C   0  0  0  0  0  0  0  0  0  0  0  0
   53.1120   80.2740   26.2350 C   0  0  0  0  0  0  0  0  0  0  0  0
   51.3671   82.6263   22.5223 H   0  0  0  0  0  0  0  0  0  0  0  0
   52.2983   83.0283   21.0398 H   0  0  0  0  0  0  0  0  0  0  0  0
   51.1686   81.6317   21.0398 H   0  0  0  0  0  0  0  0  0  0  0  0
   53.8286   81.6062   23.9198 H   0  0  0  0  0  0  0  0  0  0  0  0
   52.0055   81.5614   23.8901 H   0  0  0  0  0  0  0  0  0  0  0  0
   51.9089   79.2703   23.8501 H   0  0  0  0  0  0  0  0  0  0  0  0
   53.5906   79.1362   23.1217 H   0  0  0  0  0  0  0  0  0  0  0  0
   52.1699   77.7285   25.2772 H   0  0  0  0  0  0  0  0  0  0  0  0
   53.9482   77.2990   25.0981 H   0  0  0  0  0  0  0  0  0  0  0  0
   52.3080   77.7248   27.5423 H   0  0  0  0  0  0  0  0  0  0  0  0
   53.7743   76.6635   27.1973 H   0  0  0  0  0  0  0  0  0  0  0  0
   55.8522   77.3690   27.4038 H   0  0  0  0  0  0  0  0  0  0  0  0
   55.7314   78.9540   26.5051 H   0  0  0  0  0  0  0  0  0  0  0  0
   57.4814   80.3769   26.9621 H   0  0  0  0  0  0  0  0  0  0  0  0
   59.0391   81.4562   28.5747 H   0  0  0  0  0  0  0  0  0  0  0  0
   60.0450   79.2260   32.2760 H   0  0  0  0  0  0  0  0  0  0  0  0
   60.0030   86.7650   30.2720 H   0  0  0  0  0  0  0  0  0  0  0  0
   58.6500   88.2760   29.7180 H   0  0  0  0  0  0  0  0  0  0  0  0
   56.6054   88.1981   28.1783 H   0  0  0  0  0  0  0  0  0  0  0  0
   55.4482   87.1735   29.1176 H   0  0  0  0  0  0  0  0  0  0  0  0
   54.2250   88.9009   27.8931 H   0  0  0  0  0  0  0  0  0  0  0  0
   54.1536   89.2090   29.6854 H   0  0  0  0  0  0  0  0  0  0  0  0
   57.3622   90.5667   28.6206 H   0  0  0  0  0  0  0  0  0  0  0  0
   56.5001   91.8225   29.6287 H   0  0  0  0  0  0  0  0  0  0  0  0
   57.6616   90.1427   31.0168 H   0  0  0  0  0  0  0  0  0  0  0  0
   55.8528   90.1402   31.2320 H   0  0  0  0  0  0  0  0  0  0  0  0
   61.4171   87.3744   33.0859 H   0  0  0  0  0  0  0  0  0  0  0  0
   62.6904   85.8414   34.5811 H   0  0  0  0  0  0  0  0  0  0  0  0
   62.3862   83.3521   34.4523 H   0  0  0  0  0  0  0  0  0  0  0  0
   57.4121   79.0421   31.7662 H   0  0  0  0  0  0  0  0  0  0  0  0
   55.8567   77.9630   30.1554 H   0  0  0  0  0  0  0  0  0  0  0  0
   52.9602   80.1848   28.3876 H   0  0  0  0  0  0  0  0  0  0  0  0
   54.6310   80.5843   27.6907 H   0  0  0  0  0  0  0  0  0  0  0  0
   52.0160   80.2402   26.3218 H   0  0  0  0  0  0  0  0  0  0  0  0
   53.4771   81.2678   25.9364 H   0  0  0  0  0  0  0  0  0  0  0  0
  1  2  1  0
  2  3  1  0
  3  4  1  0
  4  5  1  0
  5  6  1  0
  6  7  1  0
  7  8  1  0
  8  9  1  0
  9 10  1  0
 10 11  1  0
 11 12  2  0
 12 13  1  0
 13 14  1  0
 14 15  1  0
 15 16  1  0
 16 17  2  0
 17 18  1  0
 18 19  1  0
 19 20  2  0
 19 21  1  0
 21 22  2  0
 22 23  1  0
 23 24  1  0
 24 25  2  0
 24 26  1  0
 26 27  1  0
 27 28  1  0
 28 29  1  0
 29 30  1  0
 30 31  1  0
 31 32  1  0
 22 33  1  0
 33 34  2  0
 34 35  1  0
 35 36  2  0
 13 37  2  0
 37 38  1  0
  8 39  1  0
 39 40  1  0
 40  5  1  0
 38 10  2  0
 18 14  2  0
 36 21  1  0
 36 17  1  0
 32 27  1  0
  1 41  1  0
  1 42  1  0
  1 43  1  0
  3 44  1  0
  3 45  1  0
  4 46  1  0
  4 47  1  0
  6 48  1  0
  6 49  1  0
  7 50  1  0
  7 51  1  0
  9 52  1  0
  9 53  1  0
 11 54  1  0
 12 55  1  0
 15 56  1  0
 23 57  1  0
 26 58  1  0
 28 59  1  0
 28 60  1  0
 29 61  1  0
 29 62  1  0
 31 63  1  0
 31 64  1  0
 32 65  1  0
 32 66  1  0
 33 67  1  0
 34 68  1  0
 35 69  1  0
 37 70  1  0
 38 71  1  0
 39 72  1  0
 39 73  1  0
 40 74  1  0
 40 75  1  0
M  END
>  <meeko>  (1) 
{"is_sidechain": false}

>  <smiles>  (1) 
COCCN1CCN(Cc2ccc(-c3[nH]nc4c3C(=O)c3c(NC(=O)NN5CCOCC5)cccc3-4)cc2)CC1

>  <vina_score>  (1) 
-7.715

>  <job_id>  (1) 
f74fd6b110eec04f

$$$$
