
     RDKit          3D

 44 47  0  0  0  0  0  0  0  0999 V2000
   59.4590   85.3970   33.3100 O   0  0  0  0  0  0  0  0  0  0  0  0
   58.5000   84.8550   32.7850 C   0  0  0  0  0  0  0  0  0  0  0  0
   57.3030   85.4620   32.8120 O   0  0  0  0  0  0  0  0  0  0  0  0
   58.4940   83.6400   32.1420 N   0  0  0  0  0  0  0  0  0  0  0  0
   58.1270   82.4520   32.8920 C   0  0  0  0  0  0  0  0  0  0  0  0
   59.3390   81.6200   33.3080 C   0  0  0  0  0  0  0  0  0  0  0  0
   60.0010   80.8370   32.1390 C   0  0  0  0  0  0  0  0  0  0  0  0
   59.2630   80.9170   30.8360 C   0  0  0  0  0  0  0  0  0  0  0  0
   58.9040   79.7750   30.1500 C   0  0  0  0  0  0  0  0  0  0  0  0
   58.2260   79.7660   28.9870 N   0  0  0  0  0  0  0  0  0  0  0  0
   57.8840   80.9560   28.4720 C   0  0  0  0  0  0  0  0  0  0  0  0
   57.1710   80.8960   27.2790 N   0  0  0  0  0  0  0  0  0  0  0  0
   55.8790   81.2900   26.8880 C   0  0  0  0  0  0  0  0  0  0  0  0
   55.6090   82.6440   26.5920 C   0  0  0  0  0  0  0  0  0  0  0  0
   54.3410   83.0870   26.2190 C   0  0  0  0  0  0  0  0  0  0  0  0
   53.3000   82.1830   26.1410 C   0  0  0  0  0  0  0  0  0  0  0  0
   53.5350   80.8450   26.4530 C   0  0  0  0  0  0  0  0  0  0  0  0
   54.8060   80.3500   26.8480 C   0  0  0  0  0  0  0  0  0  0  0  0
   54.8450   78.8550   27.1960 C   0  0  0  0  0  0  0  0  0  0  0  0
   54.8500   78.3670   28.6210 C   0  0  0  0  0  0  0  0  0  0  0  0
   53.6880   78.0480   27.7180 C   0  0  0  0  0  0  0  0  0  0  0  0
   58.1680   82.1180   29.0740 N   0  0  0  0  0  0  0  0  0  0  0  0
   58.8590   82.0990   30.2370 C   0  0  0  0  0  0  0  0  0  0  0  0
   59.1550   83.4490   30.8540 C   0  0  0  0  0  0  0  0  0  0  0  0
   57.4200   86.1540   33.4930 H   0  0  0  0  0  0  0  0  0  0  0  0
   57.5846   82.7611   33.7977 H   0  0  0  0  0  0  0  0  0  0  0  0
   57.5025   81.8257   32.2380 H   0  0  0  0  0  0  0  0  0  0  0  0
   60.0908   82.2966   33.7405 H   0  0  0  0  0  0  0  0  0  0  0  0
   58.9783   80.8710   34.0283 H   0  0  0  0  0  0  0  0  0  0  0  0
   61.0127   81.2406   31.9854 H   0  0  0  0  0  0  0  0  0  0  0  0
   59.9989   79.7772   32.4335 H   0  0  0  0  0  0  0  0  0  0  0  0
   59.1914   78.8055   30.5830 H   0  0  0  0  0  0  0  0  0  0  0  0
   57.8260   80.7400   26.5320 H   0  0  0  0  0  0  0  0  0  0  0  0
   56.4282   83.3751   26.6581 H   0  0  0  0  0  0  0  0  0  0  0  0
   54.1709   84.1490   25.9885 H   0  0  0  0  0  0  0  0  0  0  0  0
   52.2966   82.5151   25.8361 H   0  0  0  0  0  0  0  0  0  0  0  0
   52.6947   80.1379   26.3902 H   0  0  0  0  0  0  0  0  0  0  0  0
   55.4981   78.7616   26.3158 H   0  0  0  0  0  0  0  0  0  0  0  0
   55.5437   77.5702   28.9273 H   0  0  0  0  0  0  0  0  0  0  0  0
   54.9622   78.8430   29.6063 H   0  0  0  0  0  0  0  0  0  0  0  0
   53.5325   77.0178   27.3651 H   0  0  0  0  0  0  0  0  0  0  0  0
   52.5991   78.1944   27.7710 H   0  0  0  0  0  0  0  0  0  0  0  0
   60.2416   83.5380   31.0001 H   0  0  0  0  0  0  0  0  0  0  0  0
   58.7711   84.2181   30.1676 H   0  0  0  0  0  0  0  0  0  0  0  0
  1  2  2  0
  2  3  1  0
  2  4  1  0
  4  5  1  0
  5  6  1  0
  6  7  1  0
  7  8  1  0
  8  9  2  0
  9 10  1  0
 10 11  2  0
 11 12  1  0
 12 13  1  0
 13 14  2  0
 14 15  1  0
 15 16  2  0
 16 17  1  0
 17 18  2  0
 18 19  1  0
 19 20  1  0
 20 21  1  0
 11 22  1  0
 22 23  2  0
 23 24  1  0
 24  4  1  0
 23  8  1  0
 18 13  1  0
 21 19  1  0
  3 25  1  0
  5 26  1  0
  5 27  1  0
  6 28  1  0
  6 29  1  0
  7 30  1  0
  7 31  1  0
  9 32  1  0
 12 33  1  0
 14 34  1  0
 15 35  1  0
 16 36  1  0
 17 37  1  0
 19 38  1  0
 20 39  1  0
 20 40  1  0
 21 41  1  0
 21 42  1  0
 24 43  1  0
 24 44  1  0
M  END
>  <meeko>  (1) 
{"is_sidechain": false}

>  <smiles>  (1) 
O=C(O)N1CCCc2cnc(Nc3ccccc3C3CC3)nc2C1

>  <vina_score>  (1) 
-5.843

>  <job_id>  (1) 
f7f3a1e26b56ccfc

$$$$
