
     RDKit          3D

 36 38  0  0  0  0  0  0  0  0999 V2000
   55.4440   76.8500   29.8330 C   0  0  0  0  0  0  0  0  0  0  0  0
   54.7420   77.6160   28.7740 C   0  0  0  0  0  0  0  0  0  0  0  0
   53.4610   77.4970   28.4860 N   0  0  0  0  0  0  0  0  0  0  0  0
   53.2310   78.3890   27.4740 C   0  0  0  0  0  0  0  0  0  0  0  0
   54.3800   79.0680   27.1080 C   0  0  0  0  0  0  0  0  0  0  0  0
   54.6030   80.0560   26.2040 N   0  0  0  0  0  0  0  0  0  0  0  0
   53.7570   80.4850   25.1600 C   0  0  0  0  0  0  0  0  0  0  0  0
   53.3140   79.5380   24.2220 C   0  0  0  0  0  0  0  0  0  0  0  0
   52.5070   79.9080   23.1430 C   0  0  0  0  0  0  0  0  0  0  0  0
   52.1440   81.2460   22.9850 C   0  0  0  0  0  0  0  0  0  0  0  0
   51.0960   81.7210   21.6430 S   0  0  0  0  0  0  0  0  0  0  0  0
   49.5730   81.3570   22.2470 N   0  0  0  0  0  0  0  0  0  0  0  0
   51.3100   80.8220   20.5320 O   0  0  0  0  0  0  0  0  0  0  0  0
   51.1320   83.1570   21.4960 O   0  0  0  0  0  0  0  0  0  0  0  0
   52.5640   82.2050   23.9070 C   0  0  0  0  0  0  0  0  0  0  0  0
   53.3730   81.8220   24.9820 C   0  0  0  0  0  0  0  0  0  0  0  0
   55.3450   78.5530   27.9560 N   0  0  0  0  0  0  0  0  0  0  0  0
   56.8090   78.8620   28.0140 C   0  0  0  0  0  0  0  0  0  0  0  0
   57.4800   79.4820   29.2140 C   0  0  0  0  0  0  0  0  0  0  0  0
   57.4260   80.2330   27.9100 C   0  0  0  0  0  0  0  0  0  0  0  0
   55.1173   77.2064   30.8210 H   0  0  0  0  0  0  0  0  0  0  0  0
   55.2054   75.7810   29.7316 H   0  0  0  0  0  0  0  0  0  0  0  0
   56.5297   76.9946   29.7316 H   0  0  0  0  0  0  0  0  0  0  0  0
   52.2481   78.5477   27.0063 H   0  0  0  0  0  0  0  0  0  0  0  0
   55.4660   80.5870   26.2420 H   0  0  0  0  0  0  0  0  0  0  0  0
   53.6081   78.4845   24.3391 H   0  0  0  0  0  0  0  0  0  0  0  0
   52.1608   79.1508   22.4241 H   0  0  0  0  0  0  0  0  0  0  0  0
   49.6590   80.7390   23.0540 H   0  0  0  0  0  0  0  0  0  0  0  0
   48.9850   80.9840   21.5010 H   0  0  0  0  0  0  0  0  0  0  0  0
   52.2609   83.2559   23.7894 H   0  0  0  0  0  0  0  0  0  0  0  0
   53.7138   82.5825   25.7000 H   0  0  0  0  0  0  0  0  0  0  0  0
   56.9122   77.9301   27.4388 H   0  0  0  0  0  0  0  0  0  0  0  0
   56.8755   79.8198   30.0687 H   0  0  0  0  0  0  0  0  0  0  0  0
   58.2814   79.1749   29.9021 H   0  0  0  0  0  0  0  0  0  0  0  0
   56.7823   81.1196   27.8124 H   0  0  0  0  0  0  0  0  0  0  0  0
   58.1720   80.7018   27.2515 H   0  0  0  0  0  0  0  0  0  0  0  0
  1  2  1  0
  2  3  2  0
  3  4  1  0
  4  5  2  0
  5  6  1  0
  6  7  1  0
  7  8  1  0
  8  9  2  0
  9 10  1  0
 10 11  1  0
 11 12  1  0
 11 13  2  0
 11 14  2  0
 10 15  2  0
 15 16  1  0
  5 17  1  0
 17 18  1  0
 18 19  1  0
 19 20  1  0
 17  2  1  0
 20 18  1  0
 16  7  2  0
  1 21  1  0
  1 22  1  0
  1 23  1  0
  4 24  1  0
  6 25  1  0
  8 26  1  0
  9 27  1  0
 12 28  1  0
 12 29  1  0
 15 30  1  0
 16 31  1  0
 18 32  1  0
 19 33  1  0
 19 34  1  0
 20 35  1  0
 20 36  1  0
M  END
>  <meeko>  (1) 
{"is_sidechain": false}

>  <smiles>  (1) 
Cc1ncc(Nc2ccc(S(N)(=O)=O)cc2)n1C1CC1

>  <vina_score>  (1) 
-7.753

>  <job_id>  (1) 
f816772fc2065c1e

$$$$
