
     RDKit          3D

 40 41  0  0  0  0  0  0  0  0999 V2000
   54.9590   89.0100   24.3500 C   0  0  0  0  0  0  0  0  0  0  0  0
   54.1700   88.4590   25.5120 C   0  0  0  0  0  0  0  0  0  0  0  0
   52.9350   88.4730   25.4680 O   0  0  0  0  0  0  0  0  0  0  0  0
   54.8700   87.9160   26.5950 N   0  0  0  0  0  0  0  0  0  0  0  0
   55.1170   88.8290   27.7030 C   0  0  0  0  0  0  0  0  0  0  0  0
   55.2830   86.5790   26.6620 C   0  0  0  0  0  0  0  0  0  0  0  0
   56.3090   86.2350   27.2430 O   0  0  0  0  0  0  0  0  0  0  0  0
   54.4070   85.6940   26.0540 N   0  0  0  0  0  0  0  0  0  0  0  0
   54.4480   84.2850   26.0930 C   0  0  0  0  0  0  0  0  0  0  0  0
   55.6300   83.5420   26.1490 C   0  0  0  0  0  0  0  0  0  0  0  0
   55.5920   82.1420   26.1970 C   0  0  0  0  0  0  0  0  0  0  0  0
   54.3650   81.4710   26.1860 C   0  0  0  0  0  0  0  0  0  0  0  0
   54.2760   79.9830   26.2380 C   0  0  0  0  0  0  0  0  0  0  0  0
   54.4510   79.3600   25.1990 O   0  0  0  0  0  0  0  0  0  0  0  0
   54.0380   79.4590   27.4960 N   0  0  0  0  0  0  0  0  0  0  0  0
   53.8670   78.1020   27.8390 C   0  0  0  0  0  0  0  0  0  0  0  0
   52.8310   77.4060   27.2020 C   0  0  0  0  0  0  0  0  0  0  0  0
   52.5990   76.0560   27.4810 C   0  0  0  0  0  0  0  0  0  0  0  0
   53.4030   75.3880   28.3990 C   0  0  0  0  0  0  0  0  0  0  0  0
   54.4380   76.0690   29.0350 C   0  0  0  0  0  0  0  0  0  0  0  0
   54.6700   77.4200   28.7550 C   0  0  0  0  0  0  0  0  0  0  0  0
   53.1780   82.2110   26.1610 C   0  0  0  0  0  0  0  0  0  0  0  0
   53.2220   83.6080   26.1130 C   0  0  0  0  0  0  0  0  0  0  0  0
   55.8056   89.6012   24.7291 H   0  0  0  0  0  0  0  0  0  0  0  0
   55.3376   88.1789   23.7369 H   0  0  0  0  0  0  0  0  0  0  0  0
   54.3091   89.6516   23.7369 H   0  0  0  0  0  0  0  0  0  0  0  0
   54.9732   88.2974   28.6552 H   0  0  0  0  0  0  0  0  0  0  0  0
   56.1491   89.2050   27.6452 H   0  0  0  0  0  0  0  0  0  0  0  0
   54.4152   89.6741   27.6452 H   0  0  0  0  0  0  0  0  0  0  0  0
   53.7930   86.0940   25.3580 H   0  0  0  0  0  0  0  0  0  0  0  0
   56.5998   84.0611   26.1555 H   0  0  0  0  0  0  0  0  0  0  0  0
   56.5299   81.5692   26.2435 H   0  0  0  0  0  0  0  0  0  0  0  0
   54.0490   80.1050   28.2750 H   0  0  0  0  0  0  0  0  0  0  0  0
   52.1928   77.9280   26.4739 H   0  0  0  0  0  0  0  0  0  0  0  0
   51.7811   75.5222   26.9749 H   0  0  0  0  0  0  0  0  0  0  0  0
   53.2219   74.3261   28.6216 H   0  0  0  0  0  0  0  0  0  0  0  0
   55.0757   75.5426   29.7604 H   0  0  0  0  0  0  0  0  0  0  0  0
   55.4914   77.9489   29.2605 H   0  0  0  0  0  0  0  0  0  0  0  0
   52.2079   81.6928   26.1791 H   0  0  0  0  0  0  0  0  0  0  0  0
   52.2835   84.1814   26.0907 H   0  0  0  0  0  0  0  0  0  0  0  0
  1  2  1  0
  2  3  2  0
  2  4  1  0
  4  5  1  0
  4  6  1  0
  6  7  2  0
  6  8  1  0
  8  9  1  0
  9 10  1  0
 10 11  2  0
 11 12  1  0
 12 13  1  0
 13 14  2  0
 13 15  1  0
 15 16  1  0
 16 17  2  0
 17 18  1  0
 18 19  2  0
 19 20  1  0
 20 21  2  0
 12 22  2  0
 22 23  1  0
 23  9  2  0
 21 16  1  0
  1 24  1  0
  1 25  1  0
  1 26  1  0
  5 27  1  0
  5 28  1  0
  5 29  1  0
  8 30  1  0
 10 31  1  0
 11 32  1  0
 15 33  1  0
 17 34  1  0
 18 35  1  0
 19 36  1  0
 20 37  1  0
 21 38  1  0
 22 39  1  0
 23 40  1  0
M  END
>  <meeko>  (1) 
{"is_sidechain": false}

>  <smiles>  (1) 
CC(=O)N(C)C(=O)Nc1ccc(C(=O)Nc2ccccc2)cc1

>  <vina_score>  (1) 
-7.440

>  <job_id>  (1) 
f870559a2edbf38b

$$$$
