
     RDKit          3D

 56 59  0  0  0  0  0  0  0  0999 V2000
   52.6290   80.7420   22.9490 C   0  0  0  0  0  0  0  0  0  0  0  0
   52.3630   79.8690   24.0890 N   0  0  0  0  0  0  0  0  0  0  0  0
   52.3890   80.6080   25.3680 C   0  0  0  0  0  0  0  0  0  0  0  0
   53.6990   80.4990   26.1840 C   0  0  0  0  0  0  0  0  0  0  0  0
   54.0510   79.0920   26.4460 N   0  0  0  0  0  0  0  0  0  0  0  0
   54.7870   78.7200   27.5610 C   0  0  0  0  0  0  0  0  0  0  0  0
   54.4930   77.5680   28.2910 C   0  0  0  0  0  0  0  0  0  0  0  0
   55.2640   77.2330   29.3940 C   0  0  0  0  0  0  0  0  0  0  0  0
   56.3110   77.9590   29.8290 N   0  0  0  0  0  0  0  0  0  0  0  0
   56.6100   79.0860   29.1420 C   0  0  0  0  0  0  0  0  0  0  0  0
   57.7650   79.8570   29.6490 C   0  0  0  0  0  0  0  0  0  0  0  0
   58.0740   79.8710   31.0200 C   0  0  0  0  0  0  0  0  0  0  0  0
   59.1670   80.5890   31.5200 C   0  0  0  0  0  0  0  0  0  0  0  0
   59.9910   81.3260   30.6630 C   0  0  0  0  0  0  0  0  0  0  0  0
   61.1650   82.1070   31.2260 C   0  0  2  0  0  0  0  0  0  0  0  0
   61.4120   81.7630   32.7090 C   0  0  0  0  0  0  0  0  0  0  0  0
   61.9990   82.9240   33.5190 C   0  0  0  0  0  0  0  0  0  0  0  0
   62.9580   83.8080   32.7160 C   0  0  1  0  0  0  0  0  0  0  0  0
   64.1720   83.0710   32.3570 N   0  0  0  0  0  0  0  0  0  0  0  0
   62.2820   84.3800   31.4570 C   0  0  0  0  0  0  0  0  0  0  0  0
   61.0270   83.6210   31.0120 C   0  0  0  0  0  0  0  0  0  0  0  0
   59.6840   81.3360   29.2970 C   0  0  0  0  0  0  0  0  0  0  0  0
   58.5910   80.6140   28.8010 C   0  0  0  0  0  0  0  0  0  0  0  0
   55.8760   79.4760   28.0170 C   0  0  0  0  0  0  0  0  0  0  0  0
   53.5150   78.0980   25.5000 C   0  0  0  0  0  0  0  0  0  0  0  0
   53.3100   78.7330   24.1040 C   0  0  0  0  0  0  0  0  0  0  0  0
   52.9318   81.7357   23.3109 H   0  0  0  0  0  0  0  0  0  0  0  0
   53.4369   80.3122   22.3387 H   0  0  0  0  0  0  0  0  0  0  0  0
   51.7187   80.8357   22.3387 H   0  0  0  0  0  0  0  0  0  0  0  0
   52.2173   81.6717   25.1464 H   0  0  0  0  0  0  0  0  0  0  0  0
   51.6092   80.1488   25.9934 H   0  0  0  0  0  0  0  0  0  0  0  0
   54.5144   80.9729   25.6178 H   0  0  0  0  0  0  0  0  0  0  0  0
   53.5501   81.0052   27.1492 H   0  0  0  0  0  0  0  0  0  0  0  0
   53.6509   76.9264   27.9921 H   0  0  0  0  0  0  0  0  0  0  0  0
   55.0043   76.3184   29.9472 H   0  0  0  0  0  0  0  0  0  0  0  0
   57.4410   79.3034   31.7179 H   0  0  0  0  0  0  0  0  0  0  0  0
   59.3802   80.5734   32.5990 H   0  0  0  0  0  0  0  0  0  0  0  0
   62.0521   81.7931   30.6564 H   0  0  0  0  0  0  0  0  0  0  0  0
   60.4531   81.4723   33.1628 H   0  0  0  0  0  0  0  0  0  0  0  0
   62.1503   80.9479   32.7323 H   0  0  0  0  0  0  0  0  0  0  0  0
   61.1699   83.5497   33.8812 H   0  0  0  0  0  0  0  0  0  0  0  0
   62.5798   82.4822   34.3421 H   0  0  0  0  0  0  0  0  0  0  0  0
   63.2405   84.6543   33.3594 H   0  0  0  0  0  0  0  0  0  0  0  0
   64.9900   83.5600   32.7200 H   0  0  0  0  0  0  0  0  0  0  0  0
   64.1790   82.1500   32.7910 H   0  0  0  0  0  0  0  0  0  0  0  0
   61.9987   85.4229   31.6623 H   0  0  0  0  0  0  0  0  0  0  0  0
   63.0117   84.2870   30.6391 H   0  0  0  0  0  0  0  0  0  0  0  0
   60.1669   83.9850   31.5932 H   0  0  0  0  0  0  0  0  0  0  0  0
   60.8846   83.8007   29.9362 H   0  0  0  0  0  0  0  0  0  0  0  0
   60.3093   81.9184   28.6043 H   0  0  0  0  0  0  0  0  0  0  0  0
   58.3743   80.6402   27.7229 H   0  0  0  0  0  0  0  0  0  0  0  0
   56.1586   80.3934   27.4798 H   0  0  0  0  0  0  0  0  0  0  0  0
   54.2226   77.2600   25.4160 H   0  0  0  0  0  0  0  0  0  0  0  0
   52.5445   77.7392   25.8733 H   0  0  0  0  0  0  0  0  0  0  0  0
   54.2847   79.0913   23.7413 H   0  0  0  0  0  0  0  0  0  0  0  0
   52.8777   77.9519   23.4613 H   0  0  0  0  0  0  0  0  0  0  0  0
  1  2  1  0
  2  3  1  0
  3  4  1  0
  4  5  1  0
  5  6  1  0
  6  7  2  0
  7  8  1  0
  8  9  2  0
  9 10  1  0
 10 11  1  0
 11 12  1  0
 12 13  2  0
 13 14  1  0
 14 15  1  0
 15 16  1  0
 16 17  1  0
 17 18  1  0
 18 19  1  0
 18 20  1  0
 20 21  1  0
 14 22  2  0
 22 23  1  0
 10 24  2  0
  5 25  1  0
 25 26  1  0
 26  2  1  0
 24  6  1  0
 23 11  2  0
 21 15  1  0
  1 27  1  0
  1 28  1  0
  1 29  1  0
  3 30  1  0
  3 31  1  0
  4 32  1  0
  4 33  1  0
  7 34  1  0
  8 35  1  0
 12 36  1  0
 13 37  1  0
 15 38  1  1
 16 39  1  0
 16 40  1  0
 17 41  1  0
 17 42  1  0
 18 43  1  6
 19 44  1  0
 19 45  1  0
 20 46  1  0
 20 47  1  0
 21 48  1  0
 21 49  1  0
 22 50  1  0
 23 51  1  0
 24 52  1  0
 25 53  1  0
 25 54  1  0
 26 55  1  0
 26 56  1  0
M  END
>  <meeko>  (1) 
{"is_sidechain": false}

>  <smiles>  (1) 
CN1CCN(c2ccnc(-c3ccc([C@H]4CC[C@H](N)CC4)cc3)c2)CC1

>  <vina_score>  (1) 
-8.143

>  <job_id>  (1) 
f8b39094e5379ff9

$$$$
