
     RDKit          3D

 47 48  0  0  0  0  0  0  0  0999 V2000
   51.1600   80.9820   23.1600 C   0  0  0  0  0  0  0  0  0  0  0  0
   52.9580   80.9930   23.3650 S   0  0  0  0  0  0  0  0  0  0  0  0
   53.2930   79.1650   24.2570 S   0  0  0  0  0  0  0  0  0  0  0  0
   54.3700   79.6010   25.7050 C   0  0  2  0  0  0  0  0  0  0  0  0
   53.7720   79.0900   26.9040 O   0  0  0  0  0  0  0  0  0  0  0  0
   54.6040   78.3540   27.7150 C   0  0  0  0  0  0  0  0  0  0  0  0
   55.8070   78.8640   28.0410 N   0  0  0  0  0  0  0  0  0  0  0  0
   56.5880   78.1420   28.8590 C   0  0  0  0  0  0  0  0  0  0  0  0
   57.8250   78.7140   29.1440 N   0  0  0  0  0  0  0  0  0  0  0  0
   58.2290   79.8830   29.7970 C   0  0  0  0  0  0  0  0  0  0  0  0
   58.7300   80.9420   29.0170 C   0  0  0  0  0  0  0  0  0  0  0  0
   59.1650   82.1370   29.6000 C   0  0  0  0  0  0  0  0  0  0  0  0
   59.1010   82.2830   30.9850 C   0  0  0  0  0  0  0  0  0  0  0  0
   59.6620   83.7800   31.7520 S   0  0  0  0  0  0  0  0  0  0  0  0
   59.7070   83.5620   33.1860 O   0  0  0  0  0  0  0  0  0  0  0  0
   60.8470   84.2150   31.0330 O   0  0  0  0  0  0  0  0  0  0  0  0
   58.4430   84.8600   31.4460 O   0  0  0  0  0  0  0  0  0  0  0  0
   57.4350   85.0510   32.5200 N   0  0  0  0  0  0  0  0  0  0  0  0
   58.6110   81.2500   31.7840 C   0  0  0  0  0  0  0  0  0  0  0  0
   58.1810   80.0590   31.1850 C   0  0  0  0  0  0  0  0  0  0  0  0
   56.2130   76.9600   29.3610 N   0  0  0  0  0  0  0  0  0  0  0  0
   54.9920   76.4980   29.0260 C   0  0  0  0  0  0  0  0  0  0  0  0
   54.1240   77.1660   28.2010 C   0  0  0  0  0  0  0  0  0  0  0  0
   52.7810   76.6380   27.8630 C   0  0  0  0  0  0  0  0  0  0  0  0
   51.7670   77.3730   28.3950 F   0  0  0  0  0  0  0  0  0  0  0  0
   52.5830   75.3680   28.3250 F   0  0  0  0  0  0  0  0  0  0  0  0
   52.5480   76.5740   26.5250 F   0  0  0  0  0  0  0  0  0  0  0  0
   54.4820   81.1450   25.7950 C   0  0  1  0  0  0  0  0  0  0  0  0
   53.5970   81.7300   26.8940 C   0  0  0  0  0  0  0  0  0  0  0  0
   55.8310   81.5410   26.0790 O   0  0  0  0  0  0  0  0  0  0  0  0
   50.6782   80.9791   24.1489 H   0  0  0  0  0  0  0  0  0  0  0  0
   50.8489   81.8783   22.6033 H   0  0  0  0  0  0  0  0  0  0  0  0
   50.8599   80.0820   22.6033 H   0  0  0  0  0  0  0  0  0  0  0  0
   55.3714   79.1630   25.5813 H   0  0  0  0  0  0  0  0  0  0  0  0
   58.5540   78.1350   28.7510 H   0  0  0  0  0  0  0  0  0  0  0  0
   58.7807   80.8275   27.9242 H   0  0  0  0  0  0  0  0  0  0  0  0
   59.5534   82.9526   28.9724 H   0  0  0  0  0  0  0  0  0  0  0  0
   56.8390   85.7910   32.1280 H   0  0  0  0  0  0  0  0  0  0  0  0
   58.0060   85.5010   33.2390 H   0  0  0  0  0  0  0  0  0  0  0  0
   58.5626   81.3697   32.8764 H   0  0  0  0  0  0  0  0  0  0  0  0
   57.7977   79.2453   31.8183 H   0  0  0  0  0  0  0  0  0  0  0  0
   54.6734   75.5292   29.4382 H   0  0  0  0  0  0  0  0  0  0  0  0
   54.1534   81.5279   24.8175 H   0  0  0  0  0  0  0  0  0  0  0  0
   54.0070   81.4590   27.8781 H   0  0  0  0  0  0  0  0  0  0  0  0
   53.5686   82.8254   26.7977 H   0  0  0  0  0  0  0  0  0  0  0  0
   52.5781   81.3269   26.7977 H   0  0  0  0  0  0  0  0  0  0  0  0
   55.8530   82.5140   26.0860 H   0  0  0  0  0  0  0  0  0  0  0  0
  1  2  1  0
  2  3  1  0
  3  4  1  0
  4  5  1  0
  5  6  1  0
  6  7  2  0
  7  8  1  0
  8  9  1  0
  9 10  1  0
 10 11  1  0
 11 12  2  0
 12 13  1  0
 13 14  1  0
 14 15  2  0
 14 16  2  0
 14 17  1  0
 17 18  1  0
 13 19  2  0
 19 20  1  0
  8 21  2  0
 21 22  1  0
 22 23  2  0
 23 24  1  0
 24 25  1  0
 24 26  1  0
 24 27  1  0
  4 28  1  0
 28 29  1  0
 28 30  1  0
 23  6  1  0
 20 10  2  0
  1 31  1  0
  1 32  1  0
  1 33  1  0
  4 34  1  6
  9 35  1  0
 11 36  1  0
 12 37  1  0
 18 38  1  0
 18 39  1  0
 19 40  1  0
 20 41  1  0
 22 42  1  0
 28 43  1  6
 29 44  1  0
 29 45  1  0
 29 46  1  0
 30 47  1  0
M  END
>  <meeko>  (1) 
{"is_sidechain": false}

>  <smiles>  (1) 
CSS[C@H](Oc1nc(Nc2ccc(S(=O)(=O)ON)cc2)ncc1C(F)(F)F)[C@@H](C)O

>  <vina_score>  (1) 
-7.749

>  <job_id>  (1) 
f92cdf72936cd943

$$$$
