
     RDKit          3D

 50 52  0  0  0  0  0  0  0  0999 V2000
   55.9930   81.4990   26.6170 C   0  0  0  0  0  0  0  0  0  0  0  0
   54.8820   80.8900   27.3230 N   0  0  0  0  0  0  0  0  0  0  0  0
   54.1440   79.7750   26.9210 C   0  0  0  0  0  0  0  0  0  0  0  0
   53.9680   78.7140   27.7480 C   0  0  0  0  0  0  0  0  0  0  0  0
   54.5400   78.6280   29.1430 C   0  0  0  0  0  0  0  0  0  0  0  0
   55.7010   77.6440   29.1580 C   0  0  0  0  0  0  0  0  0  0  0  0
   55.5670   76.5310   29.6720 O   0  0  0  0  0  0  0  0  0  0  0  0
   56.9690   78.0800   28.4390 C   0  0  0  0  0  0  0  0  0  0  0  0
   57.6980   79.2150   29.1150 C   0  0  0  0  0  0  0  0  0  0  0  0
   58.6080   80.0050   28.3950 C   0  0  0  0  0  0  0  0  0  0  0  0
   59.2920   81.0490   29.0200 C   0  0  0  0  0  0  0  0  0  0  0  0
   59.0790   81.3140   30.3730 C   0  0  0  0  0  0  0  0  0  0  0  0
   58.1840   80.5280   31.0950 C   0  0  0  0  0  0  0  0  0  0  0  0
   57.9220   80.8490   32.7660 Cl  0  0  0  0  0  0  0  0  0  0  0  0
   57.4970   79.4830   30.4780 C   0  0  0  0  0  0  0  0  0  0  0  0
   53.2000   77.4800   27.3130 C   0  0  0  0  0  0  0  0  0  0  0  0
   53.3100   77.2170   25.8120 C   0  0  0  0  0  0  0  0  0  0  0  0
   53.1130   78.4780   25.0410 C   0  0  0  0  0  0  0  0  0  0  0  0
   52.5650   78.4960   23.7780 C   0  0  0  0  0  0  0  0  0  0  0  0
   52.3760   79.6210   23.0650 N   0  0  0  0  0  0  0  0  0  0  0  0
   52.7660   80.7670   23.6510 C   0  0  0  0  0  0  0  0  0  0  0  0
   52.5550   82.0540   22.8990 C   0  0  0  0  0  0  0  0  0  0  0  0
   51.4200   81.9930   21.8660 C   0  0  1  0  0  0  0  0  0  0  0  0
   50.1990   81.3570   22.4120 N   0  0  0  0  0  0  0  0  0  0  0  0
   51.1580   83.3270   21.2700 C   0  0  0  0  0  0  0  0  0  0  0  0
   50.9300   84.3570   20.7860 N   0  0  0  0  0  0  0  0  0  0  0  0
   53.3340   80.8510   24.8660 N   0  0  0  0  0  0  0  0  0  0  0  0
   53.5150   79.7020   25.5520 C   0  0  0  0  0  0  0  0  0  0  0  0
   56.7165   81.8956   27.3445 H   0  0  0  0  0  0  0  0  0  0  0  0
   56.4842   80.7441   25.9856 H   0  0  0  0  0  0  0  0  0  0  0  0
   55.6208   82.3192   25.9856 H   0  0  0  0  0  0  0  0  0  0  0  0
   54.2880   81.5970   27.7500 H   0  0  0  0  0  0  0  0  0  0  0  0
   54.8972   79.6207   29.4542 H   0  0  0  0  0  0  0  0  0  0  0  0
   53.7597   78.2835   29.8376 H   0  0  0  0  0  0  0  0  0  0  0  0
   57.6488   77.2171   28.3825 H   0  0  0  0  0  0  0  0  0  0  0  0
   56.6634   78.4439   27.4469 H   0  0  0  0  0  0  0  0  0  0  0  0
   58.7836   79.7995   27.3287 H   0  0  0  0  0  0  0  0  0  0  0  0
   60.0000   81.6637   28.4448 H   0  0  0  0  0  0  0  0  0  0  0  0
   59.6145   82.1385   30.8665 H   0  0  0  0  0  0  0  0  0  0  0  0
   56.7960   78.8674   31.0608 H   0  0  0  0  0  0  0  0  0  0  0  0
   53.5985   76.6086   27.8533 H   0  0  0  0  0  0  0  0  0  0  0  0
   52.1381   77.6504   27.5440 H   0  0  0  0  0  0  0  0  0  0  0  0
   54.3069   76.8091   25.5888 H   0  0  0  0  0  0  0  0  0  0  0  0
   52.5300   76.4983   25.5204 H   0  0  0  0  0  0  0  0  0  0  0  0
   52.2654   77.5383   23.3274 H   0  0  0  0  0  0  0  0  0  0  0  0
   52.3193   82.8452   23.6260 H   0  0  0  0  0  0  0  0  0  0  0  0
   53.4825   82.2541   22.3425 H   0  0  0  0  0  0  0  0  0  0  0  0
   51.7557   81.3408   21.0463 H   0  0  0  0  0  0  0  0  0  0  0  0
   49.5530   82.0810   22.7270 H   0  0  0  0  0  0  0  0  0  0  0  0
   50.4690   80.8340   23.2530 H   0  0  0  0  0  0  0  0  0  0  0  0
  1  2  1  0
  2  3  1  0
  3  4  2  0
  4  5  1  0
  5  6  1  0
  6  7  2  0
  6  8  1  0
  8  9  1  0
  9 10  2  0
 10 11  1  0
 11 12  2  0
 12 13  1  0
 13 14  1  0
 13 15  2  0
  4 16  1  0
 16 17  1  0
 17 18  1  0
 18 19  2  0
 19 20  1  0
 20 21  2  0
 21 22  1  0
 22 23  1  0
 23 24  1  0
 23 25  1  0
 25 26  3  0
 21 27  1  0
 27 28  2  0
 28  3  1  0
 15  9  1  0
 28 18  1  0
  1 29  1  0
  1 30  1  0
  1 31  1  0
  2 32  1  0
  5 33  1  0
  5 34  1  0
  8 35  1  0
  8 36  1  0
 10 37  1  0
 11 38  1  0
 12 39  1  0
 15 40  1  0
 16 41  1  0
 16 42  1  0
 17 43  1  0
 17 44  1  0
 19 45  1  0
 22 46  1  0
 22 47  1  0
 23 48  1  6
 24 49  1  0
 24 50  1  0
M  END
>  <meeko>  (1) 
{"is_sidechain": false}

>  <smiles>  (1) 
CNC1=C(CC(=O)Cc2cccc(Cl)c2)CCc2cnc(C[C@@H](N)C#N)nc21

>  <vina_score>  (1) 
-8.195

>  <job_id>  (1) 
f947b9f9ce37e700

$$$$
