
     RDKit          3D

 46 48  0  0  0  0  0  0  0  0999 V2000
   53.3090   82.7040   26.8950 C   0  0  0  0  0  0  0  0  0  0  0  0
   54.2820   81.5370   26.6710 C   0  0  0  0  0  0  0  0  0  0  0  0
   55.5270   82.0200   25.9290 C   0  0  0  0  0  0  0  0  0  0  0  0
   53.6770   80.4060   25.9790 N   0  0  0  0  0  0  0  0  0  0  0  0
   53.0080   80.4800   24.7890 C   0  0  0  0  0  0  0  0  0  0  0  0
   52.5620   79.2980   24.4480 N   0  0  0  0  0  0  0  0  0  0  0  0
   52.9690   78.4180   25.4120 N   0  0  0  0  0  0  0  0  0  0  0  0
   53.6710   79.0690   26.3320 C   0  0  0  0  0  0  0  0  0  0  0  0
   54.3120   78.4210   27.4830 C   0  0  0  0  0  0  0  0  0  0  0  0
   53.7680   77.2570   28.0200 C   0  0  0  0  0  0  0  0  0  0  0  0
   54.4090   76.6500   29.0910 C   0  0  0  0  0  0  0  0  0  0  0  0
   55.5720   77.2220   29.5950 C   0  0  0  0  0  0  0  0  0  0  0  0
   56.0570   78.3880   29.0120 C   0  0  0  0  0  0  0  0  0  0  0  0
   57.2240   78.9290   29.5550 N   0  0  0  0  0  0  0  0  0  0  0  0
   58.2990   79.4140   28.8580 C   0  0  0  0  0  0  0  0  0  0  0  0
   58.4310   79.4820   27.6450 O   0  0  0  0  0  0  0  0  0  0  0  0
   59.2420   79.8370   29.7810 O   0  0  0  0  0  0  0  0  0  0  0  0
   58.7160   80.8690   30.6730 N   0  0  0  0  0  0  0  0  0  0  0  0
   59.3060   80.6060   31.9910 C   0  0  0  0  0  0  0  0  0  0  0  0
   59.4660   81.8720   32.8460 C   0  0  0  0  0  0  0  0  0  0  0  0
   58.4610   82.9500   32.4580 C   0  0  0  0  0  0  0  0  0  0  0  0
   58.5600   83.2900   30.9670 C   0  0  0  0  0  0  0  0  0  0  0  0
   59.1450   82.1500   30.1250 C   0  0  0  0  0  0  0  0  0  0  0  0
   55.4450   78.9770   27.9690 N   0  0  0  0  0  0  0  0  0  0  0  0
   53.1736   82.8664   27.9745 H   0  0  0  0  0  0  0  0  0  0  0  0
   53.7181   83.6159   26.4355 H   0  0  0  0  0  0  0  0  0  0  0  0
   52.3384   82.4655   26.4355 H   0  0  0  0  0  0  0  0  0  0  0  0
   54.5679   81.1700   27.6678 H   0  0  0  0  0  0  0  0  0  0  0  0
   56.2954   82.3181   26.6575 H   0  0  0  0  0  0  0  0  0  0  0  0
   55.9159   81.2075   25.2976 H   0  0  0  0  0  0  0  0  0  0  0  0
   55.2662   82.8822   25.2976 H   0  0  0  0  0  0  0  0  0  0  0  0
   52.8653   81.3999   24.2030 H   0  0  0  0  0  0  0  0  0  0  0  0
   52.8461   76.8260   27.6025 H   0  0  0  0  0  0  0  0  0  0  0  0
   54.0027   75.7292   29.5350 H   0  0  0  0  0  0  0  0  0  0  0  0
   56.1003   76.7594   30.4417 H   0  0  0  0  0  0  0  0  0  0  0  0
   57.3030   78.9880   30.5580 H   0  0  0  0  0  0  0  0  0  0  0  0
   58.6571   79.8999   32.5299 H   0  0  0  0  0  0  0  0  0  0  0  0
   60.3127   80.1960   31.8225 H   0  0  0  0  0  0  0  0  0  0  0  0
   59.3148   81.6087   33.9033 H   0  0  0  0  0  0  0  0  0  0  0  0
   60.4769   82.2717   32.6778 H   0  0  0  0  0  0  0  0  0  0  0  0
   57.4453   82.5889   32.6769 H   0  0  0  0  0  0  0  0  0  0  0  0
   58.6835   83.8581   33.0376 H   0  0  0  0  0  0  0  0  0  0  0  0
   57.5512   83.5188   30.5929 H   0  0  0  0  0  0  0  0  0  0  0  0
   59.2406   84.1489   30.8721 H   0  0  0  0  0  0  0  0  0  0  0  0
   58.7908   82.2417   29.0876 H   0  0  0  0  0  0  0  0  0  0  0  0
   60.2433   82.2070   30.1448 H   0  0  0  0  0  0  0  0  0  0  0  0
  1  2  1  0
  2  3  1  0
  2  4  1  0
  4  5  1  0
  5  6  2  0
  6  7  1  0
  7  8  2  0
  8  9  1  0
  9 10  1  0
 10 11  2  0
 11 12  1  0
 12 13  2  0
 13 14  1  0
 14 15  1  0
 15 16  2  0
 15 17  1  0
 17 18  1  0
 18 19  1  0
 19 20  1  0
 20 21  1  0
 21 22  1  0
 22 23  1  0
 13 24  1  0
  8  4  1  0
 24  9  2  0
 23 18  1  0
  1 25  1  0
  1 26  1  0
  1 27  1  0
  2 28  1  0
  3 29  1  0
  3 30  1  0
  3 31  1  0
  5 32  1  0
 10 33  1  0
 11 34  1  0
 12 35  1  0
 14 36  1  0
 19 37  1  0
 19 38  1  0
 20 39  1  0
 20 40  1  0
 21 41  1  0
 21 42  1  0
 22 43  1  0
 22 44  1  0
 23 45  1  0
 23 46  1  0
M  END
>  <meeko>  (1) 
{"is_sidechain": false}

>  <smiles>  (1) 
CC(C)n1cnnc1-c1cccc(NC(=O)ON2CCCCC2)n1

>  <vina_score>  (1) 
-8.575

>  <job_id>  (1) 
f9ac3746b658f25c

$$$$
