
     RDKit          3D

 41 43  0  0  0  0  0  0  0  0999 V2000
   61.2500   83.5400   35.6380 N   0  0  0  0  0  0  0  0  0  0  0  0
   60.8100   83.0150   34.7010 C   0  0  0  0  0  0  0  0  0  0  0  0
   60.2700   82.3680   33.5410 C   0  0  0  0  0  0  0  0  0  0  0  0
   59.0920   81.6240   33.6470 C   0  0  0  0  0  0  0  0  0  0  0  0
   58.5480   80.9820   32.5270 C   0  0  0  0  0  0  0  0  0  0  0  0
   59.1970   81.0910   31.2790 C   0  0  0  0  0  0  0  0  0  0  0  0
   58.9290   80.5780   29.9700 C   0  0  0  0  0  0  0  0  0  0  0  0
   57.7760   79.7110   29.5680 C   0  0  0  0  0  0  0  0  0  0  0  0
   57.6010   79.6490   28.0460 C   0  0  0  0  0  0  0  0  0  0  0  0
   56.2440   80.0210   27.6330 N   0  0  0  0  0  0  0  0  0  0  0  0
   55.2060   79.0740   27.6470 C   0  0  0  0  0  0  0  0  0  0  0  0
   55.1260   78.1120   28.6680 C   0  0  0  0  0  0  0  0  0  0  0  0
   54.1490   77.1080   28.6650 C   0  0  0  0  0  0  0  0  0  0  0  0
   53.2240   77.0190   27.6220 C   0  0  0  0  0  0  0  0  0  0  0  0
   52.1850   75.9240   27.5960 C   0  0  0  0  0  0  0  0  0  0  0  0
   51.1200   76.2030   28.3950 F   0  0  0  0  0  0  0  0  0  0  0  0
   52.6700   74.7230   28.0180 F   0  0  0  0  0  0  0  0  0  0  0  0
   51.6760   75.7010   26.3530 F   0  0  0  0  0  0  0  0  0  0  0  0
   53.3130   77.9420   26.5720 C   0  0  0  0  0  0  0  0  0  0  0  0
   54.2910   78.9590   26.5730 C   0  0  0  0  0  0  0  0  0  0  0  0
   54.2620   79.8690   25.3940 C   0  0  0  0  0  0  0  0  0  0  0  0
   54.4480   81.0730   25.4280 O   0  0  0  0  0  0  0  0  0  0  0  0
   54.0610   79.2460   24.2150 O   0  0  0  0  0  0  0  0  0  0  0  0
   59.9370   81.0370   29.1450 C   0  0  0  0  0  0  0  0  0  0  0  0
   60.7970   81.7930   29.8950 N   0  0  0  0  0  0  0  0  0  0  0  0
   60.3710   81.8420   31.2020 C   0  0  0  0  0  0  0  0  0  0  0  0
   60.9310   82.4900   32.3100 C   0  0  0  0  0  0  0  0  0  0  0  0
   58.5863   81.5415   34.6204 H   0  0  0  0  0  0  0  0  0  0  0  0
   57.6212   80.3969   32.6199 H   0  0  0  0  0  0  0  0  0  0  0  0
   57.9496   78.6928   29.9464 H   0  0  0  0  0  0  0  0  0  0  0  0
   56.8609   80.1464   29.9957 H   0  0  0  0  0  0  0  0  0  0  0  0
   58.3168   80.3407   27.5778 H   0  0  0  0  0  0  0  0  0  0  0  0
   57.7813   78.6123   27.7254 H   0  0  0  0  0  0  0  0  0  0  0  0
   55.9360   80.8880   28.0930 H   0  0  0  0  0  0  0  0  0  0  0  0
   55.8517   78.1483   29.4938 H   0  0  0  0  0  0  0  0  0  0  0  0
   54.1099   76.3831   29.4915 H   0  0  0  0  0  0  0  0  0  0  0  0
   52.6073   77.8726   25.7311 H   0  0  0  0  0  0  0  0  0  0  0  0
   54.9760   79.1170   23.8790 H   0  0  0  0  0  0  0  0  0  0  0  0
   60.0325   80.8303   28.0688 H   0  0  0  0  0  0  0  0  0  0  0  0
   61.6250   82.2540   29.5420 H   0  0  0  0  0  0  0  0  0  0  0  0
   61.8580   83.0749   32.2180 H   0  0  0  0  0  0  0  0  0  0  0  0
  1  2  3  0
  2  3  1  0
  3  4  2  0
  4  5  1  0
  5  6  2  0
  6  7  1  0
  7  8  1  0
  8  9  1  0
  9 10  1  0
 10 11  1  0
 11 12  1  0
 12 13  2  0
 13 14  1  0
 14 15  1  0
 15 16  1  0
 15 17  1  0
 15 18  1  0
 14 19  2  0
 19 20  1  0
 20 21  1  0
 21 22  2  0
 21 23  1  0
  7 24  2  0
 24 25  1  0
 25 26  1  0
 26 27  2  0
 27  3  1  0
 26  6  1  0
 20 11  2  0
  4 28  1  0
  5 29  1  0
  8 30  1  0
  8 31  1  0
  9 32  1  0
  9 33  1  0
 10 34  1  0
 12 35  1  0
 13 36  1  0
 19 37  1  0
 23 38  1  0
 24 39  1  0
 25 40  1  0
 27 41  1  0
M  END
>  <meeko>  (1) 
{"is_sidechain": false}

>  <smiles>  (1) 
N#Cc1ccc2c(CCNc3ccc(C(F)(F)F)cc3C(=O)O)c[nH]c2c1

>  <vina_score>  (1) 
-9.170

>  <job_id>  (1) 
f9baefc6746c1022

$$$$
