
     RDKit          3D

 63 66  0  0  0  0  0  0  0  0999 V2000
   53.3670   74.9820   28.0220 C   0  0  0  0  0  0  0  0  0  0  0  0
   52.5920   75.8610   27.3650 C   0  0  0  0  0  0  0  0  0  0  0  0
   51.8100   75.4610   26.1430 C   0  0  0  0  0  0  0  0  0  0  0  0
   52.4780   77.3070   27.7930 C   0  0  0  0  0  0  0  0  0  0  0  0
   53.3100   78.2690   26.9410 C   0  0  0  0  0  0  0  0  0  0  0  0
   52.9220   78.7260   25.8660 O   0  0  0  0  0  0  0  0  0  0  0  0
   54.6600   78.6720   27.4470 C   0  0  0  0  0  0  0  0  0  0  0  0
   55.3040   78.0080   28.4940 C   0  0  0  0  0  0  0  0  0  0  0  0
   56.5690   78.4330   28.9230 C   0  0  0  0  0  0  0  0  0  0  0  0
   57.2240   79.5250   28.3300 C   0  0  0  0  0  0  0  0  0  0  0  0
   58.4870   79.8840   28.8060 N   0  0  0  0  0  0  0  0  0  0  0  0
   58.9560   80.4450   29.9890 C   0  0  0  0  0  0  0  0  0  0  0  0
   58.5700   79.9990   31.1940 N   0  0  0  0  0  0  0  0  0  0  0  0
   59.0960   80.6120   32.2710 C   0  0  0  0  0  0  0  0  0  0  0  0
   59.9850   81.6500   32.1800 C   0  0  0  0  0  0  0  0  0  0  0  0
   60.4790   82.2380   33.2790 F   0  0  0  0  0  0  0  0  0  0  0  0
   60.3340   82.0710   30.9090 C   0  0  0  0  0  0  0  0  0  0  0  0
   61.2730   83.1090   30.7890 N   0  0  0  0  0  0  0  0  0  0  0  0
   62.6590   83.0480   30.8650 C   0  0  0  0  0  0  0  0  0  0  0  0
   63.3130   81.8780   30.9370 N   0  0  0  0  0  0  0  0  0  0  0  0
   64.6590   81.9220   31.0210 C   0  0  0  0  0  0  0  0  0  0  0  0
   65.3730   83.0890   31.0480 C   0  0  0  0  0  0  0  0  0  0  0  0
   66.7090   83.0790   31.1300 F   0  0  0  0  0  0  0  0  0  0  0  0
   64.6270   84.2460   30.9970 C   0  0  0  0  0  0  0  0  0  0  0  0
   65.2400   85.5720   30.9900 C   0  0  0  0  0  0  0  0  0  0  0  0
   65.7560   86.2890   32.0530 C   0  0  0  0  0  0  0  0  0  0  0  0
   66.2950   87.4710   31.6480 N   0  0  0  0  0  0  0  0  0  0  0  0
   66.1220   87.5220   30.3420 C   0  0  0  0  0  0  0  0  0  0  0  0
   66.6010   88.6490   29.5030 C   0  0  0  0  0  0  0  0  0  0  0  0
   65.4330   86.4070   29.8930 N   0  0  0  0  0  0  0  0  0  0  0  0
   64.9500   86.1470   28.5350 C   0  0  0  0  0  0  0  0  0  0  0  0
   64.2590   87.3400   27.8690 C   0  0  0  0  0  0  0  0  0  0  0  0
   66.0410   85.5550   27.6430 C   0  0  0  0  0  0  0  0  0  0  0  0
   63.2770   84.2420   30.9040 N   0  0  0  0  0  0  0  0  0  0  0  0
   59.8190   81.4620   29.8220 N   0  0  0  0  0  0  0  0  0  0  0  0
   56.5670   80.1760   27.2840 C   0  0  0  0  0  0  0  0  0  0  0  0
   55.3030   79.7600   26.8470 C   0  0  0  0  0  0  0  0  0  0  0  0
   53.9279   75.3016   28.9127 H   0  0  0  0  0  0  0  0  0  0  0  0
   53.4407   73.9427   27.6693 H   0  0  0  0  0  0  0  0  0  0  0  0
   50.8697   74.9800   26.4506 H   0  0  0  0  0  0  0  0  0  0  0  0
   51.5853   76.3549   25.5426 H   0  0  0  0  0  0  0  0  0  0  0  0
   52.4033   74.7557   25.5426 H   0  0  0  0  0  0  0  0  0  0  0  0
   51.4220   77.6071   27.7244 H   0  0  0  0  0  0  0  0  0  0  0  0
   52.8666   77.3695   28.8202 H   0  0  0  0  0  0  0  0  0  0  0  0
   54.8178   77.1506   28.9823 H   0  0  0  0  0  0  0  0  0  0  0  0
   57.0624   77.8965   29.7468 H   0  0  0  0  0  0  0  0  0  0  0  0
   59.2820   79.6710   28.2200 H   0  0  0  0  0  0  0  0  0  0  0  0
   58.7979   80.2630   33.2707 H   0  0  0  0  0  0  0  0  0  0  0  0
   61.0140   83.8200   30.1200 H   0  0  0  0  0  0  0  0  0  0  0  0
   65.2103   80.9714   31.0703 H   0  0  0  0  0  0  0  0  0  0  0  0
   65.7337   85.9463   33.0980 H   0  0  0  0  0  0  0  0  0  0  0  0
   66.9486   89.4668   30.1513 H   0  0  0  0  0  0  0  0  0  0  0  0
   67.4313   88.3063   28.8680 H   0  0  0  0  0  0  0  0  0  0  0  0
   65.7781   89.0090   28.8680 H   0  0  0  0  0  0  0  0  0  0  0  0
   64.1619   85.3893   28.6565 H   0  0  0  0  0  0  0  0  0  0  0  0
   63.8674   88.0161   28.6433 H   0  0  0  0  0  0  0  0  0  0  0  0
   64.9838   87.8807   27.2426 H   0  0  0  0  0  0  0  0  0  0  0  0
   63.4294   86.9804   27.2426 H   0  0  0  0  0  0  0  0  0  0  0  0
   66.8347   85.1243   28.2712 H   0  0  0  0  0  0  0  0  0  0  0  0
   65.6084   84.7679   27.0079 H   0  0  0  0  0  0  0  0  0  0  0  0
   66.4651   86.3467   27.0079 H   0  0  0  0  0  0  0  0  0  0  0  0
   57.0519   81.0328   26.7933 H   0  0  0  0  0  0  0  0  0  0  0  0
   54.8099   80.2952   26.0221 H   0  0  0  0  0  0  0  0  0  0  0  0
  1  2  2  0
  2  3  1  0
  2  4  1  0
  4  5  1  0
  5  6  2  0
  5  7  1  0
  7  8  1  0
  8  9  2  0
  9 10  1  0
 10 11  1  0
 11 12  1  0
 12 13  2  0
 13 14  1  0
 14 15  2  0
 15 16  1  0
 15 17  1  0
 17 18  1  0
 18 19  1  0
 19 20  2  0
 20 21  1  0
 21 22  2  0
 22 23  1  0
 22 24  1  0
 24 25  1  0
 25 26  2  0
 26 27  1  0
 27 28  2  0
 28 29  1  0
 28 30  1  0
 30 31  1  0
 31 32  1  0
 31 33  1  0
 24 34  2  0
 17 35  2  0
 10 36  2  0
 36 37  1  0
 37  7  2  0
 35 12  1  0
 34 19  1  0
 30 25  1  0
  1 38  1  0
  1 39  1  0
  3 40  1  0
  3 41  1  0
  3 42  1  0
  4 43  1  0
  4 44  1  0
  8 45  1  0
  9 46  1  0
 11 47  1  0
 14 48  1  0
 18 49  1  0
 21 50  1  0
 26 51  1  0
 29 52  1  0
 29 53  1  0
 29 54  1  0
 31 55  1  0
 32 56  1  0
 32 57  1  0
 32 58  1  0
 33 59  1  0
 33 60  1  0
 33 61  1  0
 36 62  1  0
 37 63  1  0
M  END
>  <meeko>  (1) 
{"is_sidechain": false}

>  <smiles>  (1) 
C=C(C)CC(=O)c1ccc(Nc2ncc(F)c(Nc3ncc(F)c(-c4cnc(C)n4C(C)C)n3)n2)cc1

>  <vina_score>  (1) 
-8.938

>  <job_id>  (1) 
fa9bd353a98eb498

$$$$
