
     RDKit          3D

 38 39  0  0  0  0  0  0  0  0999 V2000
   58.1490   81.3570   33.3960 C   0  0  0  0  0  0  0  0  0  0  0  0
   59.0990   81.6880   32.2780 C   0  0  0  0  0  0  0  0  0  0  0  0
   60.0130   82.7410   32.4700 C   0  0  0  0  0  0  0  0  0  0  0  0
   60.9160   83.0950   31.4710 C   0  0  0  0  0  0  0  0  0  0  0  0
   60.9210   82.4010   30.2690 C   0  0  0  0  0  0  0  0  0  0  0  0
   60.0200   81.3530   30.0610 C   0  0  0  0  0  0  0  0  0  0  0  0
   59.0980   80.9890   31.0500 C   0  0  0  0  0  0  0  0  0  0  0  0
   58.1840   79.9250   30.8690 N   0  0  0  0  0  0  0  0  0  0  0  0
   57.6310   79.4820   29.6930 C   0  0  0  0  0  0  0  0  0  0  0  0
   57.7270   79.9930   28.5830 O   0  0  0  0  0  0  0  0  0  0  0  0
   56.8620   78.3570   29.8990 N   0  0  0  0  0  0  0  0  0  0  0  0
   56.2790   77.6390   28.7700 C   0  0  0  0  0  0  0  0  0  0  0  0
   54.9850   78.2620   28.2240 C   0  0  0  0  0  0  0  0  0  0  0  0
   53.9020   77.9840   28.7370 O   0  0  0  0  0  0  0  0  0  0  0  0
   55.1830   79.0460   27.1040 N   0  0  0  0  0  0  0  0  0  0  0  0
   54.2270   79.7520   26.3510 C   0  0  0  0  0  0  0  0  0  0  0  0
   53.8750   79.2130   25.1070 C   0  0  0  0  0  0  0  0  0  0  0  0
   52.9360   79.8510   24.2930 C   0  0  0  0  0  0  0  0  0  0  0  0
   52.3400   81.0360   24.7170 C   0  0  0  0  0  0  0  0  0  0  0  0
   52.6860   81.5800   25.9520 C   0  0  0  0  0  0  0  0  0  0  0  0
   53.6270   80.9410   26.7670 C   0  0  0  0  0  0  0  0  0  0  0  0
   58.6454   81.5300   34.3623 H   0  0  0  0  0  0  0  0  0  0  0  0
   57.2579   81.9976   33.3217 H   0  0  0  0  0  0  0  0  0  0  0  0
   57.8489   80.3013   33.3217 H   0  0  0  0  0  0  0  0  0  0  0  0
   60.0139   83.2917   33.4222 H   0  0  0  0  0  0  0  0  0  0  0  0
   61.6230   83.9218   31.6338 H   0  0  0  0  0  0  0  0  0  0  0  0
   61.6352   82.6762   29.4789 H   0  0  0  0  0  0  0  0  0  0  0  0
   60.0354   80.8062   29.1066 H   0  0  0  0  0  0  0  0  0  0  0  0
   57.7560   79.5510   31.7020 H   0  0  0  0  0  0  0  0  0  0  0  0
   57.1690   77.7740   30.6630 H   0  0  0  0  0  0  0  0  0  0  0  0
   57.0197   77.6157   27.9571 H   0  0  0  0  0  0  0  0  0  0  0  0
   56.0151   76.6362   29.1371 H   0  0  0  0  0  0  0  0  0  0  0  0
   56.1500   79.1140   26.7800 H   0  0  0  0  0  0  0  0  0  0  0  0
   54.3430   78.2772   24.7674 H   0  0  0  0  0  0  0  0  0  0  0  0
   52.6677   79.4178   23.3181 H   0  0  0  0  0  0  0  0  0  0  0  0
   51.5991   81.5405   24.0794 H   0  0  0  0  0  0  0  0  0  0  0  0
   52.2171   82.5166   26.2881 H   0  0  0  0  0  0  0  0  0  0  0  0
   53.8950   81.3781   27.7402 H   0  0  0  0  0  0  0  0  0  0  0  0
  1  2  1  0
  2  3  2  0
  3  4  1  0
  4  5  2  0
  5  6  1  0
  6  7  2  0
  7  8  1  0
  8  9  1  0
  9 10  2  0
  9 11  1  0
 11 12  1  0
 12 13  1  0
 13 14  2  0
 13 15  1  0
 15 16  1  0
 16 17  2  0
 17 18  1  0
 18 19  2  0
 19 20  1  0
 20 21  2  0
  7  2  1  0
 21 16  1  0
  1 22  1  0
  1 23  1  0
  1 24  1  0
  3 25  1  0
  4 26  1  0
  5 27  1  0
  6 28  1  0
  8 29  1  0
 11 30  1  0
 12 31  1  0
 12 32  1  0
 15 33  1  0
 17 34  1  0
 18 35  1  0
 19 36  1  0
 20 37  1  0
 21 38  1  0
M  END
>  <meeko>  (1) 
{"is_sidechain": false}

>  <smiles>  (1) 
Cc1ccccc1NC(=O)NCC(=O)Nc1ccccc1

>  <vina_score>  (1) 
-7.174

>  <job_id>  (1) 
fb27c00cf9d619d1

$$$$
