
     RDKit          3D

 64 66  0  0  0  0  0  0  0  0999 V2000
   63.2320   79.3490   36.8730 C   0  0  0  0  0  0  0  0  0  0  0  0
   62.6860   80.7240   36.5440 C   0  0  0  0  0  0  0  0  0  0  0  0
   63.0700   81.1340   35.2110 N   0  0  0  0  0  0  0  0  0  0  0  0
   62.6760   82.3580   34.7010 C   0  0  0  0  0  0  0  0  0  0  0  0
   62.0540   83.1810   35.3700 O   0  0  0  0  0  0  0  0  0  0  0  0
   62.9570   82.5350   33.1840 C   0  0  1  0  0  0  0  0  0  0  0  0
   64.4210   82.2400   32.8200 C   0  0  0  0  0  0  0  0  0  0  0  0
   64.6870   82.0400   31.3310 C   0  0  0  0  0  0  0  0  0  0  0  0
   62.0280   81.7770   32.3380 N   0  0  0  0  0  0  0  0  0  0  0  0
   60.8290   82.2990   31.9100 C   0  0  0  0  0  0  0  0  0  0  0  0
   60.4420   83.4160   32.2340 O   0  0  0  0  0  0  0  0  0  0  0  0
   59.9910   81.4370   31.0340 C   0  0  0  0  0  0  0  0  0  0  0  0
   59.1070   80.4840   31.5430 C   0  0  0  0  0  0  0  0  0  0  0  0
   58.3370   79.7010   30.6720 C   0  0  0  0  0  0  0  0  0  0  0  0
   58.4240   79.8520   29.2830 C   0  0  0  0  0  0  0  0  0  0  0  0
   57.6780   79.1050   28.3670 N   0  0  0  0  0  0  0  0  0  0  0  0
   56.3390   78.7380   28.2780 C   0  0  0  0  0  0  0  0  0  0  0  0
   55.7150   78.0670   29.2590 N   0  0  0  0  0  0  0  0  0  0  0  0
   54.4180   77.7470   29.0670 C   0  0  0  0  0  0  0  0  0  0  0  0
   53.7210   78.0790   27.9370 C   0  0  0  0  0  0  0  0  0  0  0  0
   52.4360   77.7370   27.7910 F   0  0  0  0  0  0  0  0  0  0  0  0
   54.4280   78.7830   26.9880 C   0  0  0  0  0  0  0  0  0  0  0  0
   53.8390   79.1800   25.7170 C   0  0  0  0  0  0  0  0  0  0  0  0
   53.3130   78.3620   24.7330 C   0  0  0  0  0  0  0  0  0  0  0  0
   52.8730   79.0770   23.6610 N   0  0  0  0  0  0  0  0  0  0  0  0
   53.1040   80.3370   23.9550 C   0  0  0  0  0  0  0  0  0  0  0  0
   52.7980   81.4780   23.0500 C   0  0  0  0  0  0  0  0  0  0  0  0
   53.6600   80.4610   25.2220 N   0  0  0  0  0  0  0  0  0  0  0  0
   53.9220   81.7470   25.8720 C   0  0  0  0  0  0  0  0  0  0  0  0
   53.3100   81.8990   27.2670 C   0  0  0  0  0  0  0  0  0  0  0  0
   55.4010   82.1280   25.8400 C   0  0  0  0  0  0  0  0  0  0  0  0
   55.7290   79.1120   27.1390 N   0  0  0  0  0  0  0  0  0  0  0  0
   59.3030   80.8320   28.7910 C   0  0  0  0  0  0  0  0  0  0  0  0
   60.0750   81.6190   29.6520 C   0  0  0  0  0  0  0  0  0  0  0  0
   63.2810   79.2256   37.9650 H   0  0  0  0  0  0  0  0  0  0  0  0
   62.5709   78.5803   36.4464 H   0  0  0  0  0  0  0  0  0  0  0  0
   64.2404   79.2432   36.4464 H   0  0  0  0  0  0  0  0  0  0  0  0
   61.5882   80.6993   36.6095 H   0  0  0  0  0  0  0  0  0  0  0  0
   63.1013   81.4450   37.2634 H   0  0  0  0  0  0  0  0  0  0  0  0
   63.2180   80.4040   34.5150 H   0  0  0  0  0  0  0  0  0  0  0  0
   62.7779   83.5995   32.9723 H   0  0  0  0  0  0  0  0  0  0  0  0
   65.0355   83.0841   33.1662 H   0  0  0  0  0  0  0  0  0  0  0  0
   64.6734   81.2872   33.3083 H   0  0  0  0  0  0  0  0  0  0  0  0
   65.5599   81.3837   31.1994 H   0  0  0  0  0  0  0  0  0  0  0  0
   63.8067   81.5782   30.8601 H   0  0  0  0  0  0  0  0  0  0  0  0
   64.8862   83.0139   30.8601 H   0  0  0  0  0  0  0  0  0  0  0  0
   62.2880   80.8380   32.0770 H   0  0  0  0  0  0  0  0  0  0  0  0
   59.0145   80.3472   32.6305 H   0  0  0  0  0  0  0  0  0  0  0  0
   57.6489   78.9510   31.0893 H   0  0  0  0  0  0  0  0  0  0  0  0
   58.1880   78.6660   27.6140 H   0  0  0  0  0  0  0  0  0  0  0  0
   53.8946   77.1912   29.8589 H   0  0  0  0  0  0  0  0  0  0  0  0
   53.2570   77.2660   24.8077 H   0  0  0  0  0  0  0  0  0  0  0  0
   52.5592   82.3683   23.6503 H   0  0  0  0  0  0  0  0  0  0  0  0
   53.6718   81.6872   22.4154 H   0  0  0  0  0  0  0  0  0  0  0  0
   51.9368   81.2219   22.4154 H   0  0  0  0  0  0  0  0  0  0  0  0
   53.3827   82.4799   25.2539 H   0  0  0  0  0  0  0  0  0  0  0  0
   54.0806   81.7076   28.0283 H   0  0  0  0  0  0  0  0  0  0  0  0
   52.9213   82.9210   27.3875 H   0  0  0  0  0  0  0  0  0  0  0  0
   52.4883   81.1776   27.3875 H   0  0  0  0  0  0  0  0  0  0  0  0
   55.7770   82.2249   26.8692 H   0  0  0  0  0  0  0  0  0  0  0  0
   55.9695   81.3470   25.3139 H   0  0  0  0  0  0  0  0  0  0  0  0
   55.5214   83.0865   25.3139 H   0  0  0  0  0  0  0  0  0  0  0  0
   59.3858   80.9835   27.7046 H   0  0  0  0  0  0  0  0  0  0  0  0
   60.7500   82.3833   29.2394 H   0  0  0  0  0  0  0  0  0  0  0  0
  1  2  1  0
  2  3  1  0
  3  4  1  0
  4  5  2  0
  4  6  1  0
  6  7  1  0
  7  8  1  0
  6  9  1  0
  9 10  1  0
 10 11  2  0
 10 12  1  0
 12 13  1  0
 13 14  2  0
 14 15  1  0
 15 16  1  0
 16 17  1  0
 17 18  2  0
 18 19  1  0
 19 20  2  0
 20 21  1  0
 20 22  1  0
 22 23  1  0
 23 24  2  0
 24 25  1  0
 25 26  2  0
 26 27  1  0
 26 28  1  0
 28 29  1  0
 29 30  1  0
 29 31  1  0
 22 32  2  0
 15 33  2  0
 33 34  1  0
 34 12  2  0
 32 17  1  0
 28 23  1  0
  1 35  1  0
  1 36  1  0
  1 37  1  0
  2 38  1  0
  2 39  1  0
  3 40  1  0
  6 41  1  6
  7 42  1  0
  7 43  1  0
  8 44  1  0
  8 45  1  0
  8 46  1  0
  9 47  1  0
 13 48  1  0
 14 49  1  0
 16 50  1  0
 19 51  1  0
 24 52  1  0
 27 53  1  0
 27 54  1  0
 27 55  1  0
 29 56  1  0
 30 57  1  0
 30 58  1  0
 30 59  1  0
 31 60  1  0
 31 61  1  0
 31 62  1  0
 33 63  1  0
 34 64  1  0
M  END
>  <meeko>  (1) 
{"is_sidechain": false}

>  <smiles>  (1) 
CCNC(=O)[C@@H](CC)NC(=O)c1ccc(Nc2ncc(F)c(-c3cnc(C)n3C(C)C)n2)cc1

>  <vina_score>  (1) 
-8.589

>  <job_id>  (1) 
fb2de770147466fc

$$$$
