
     RDKit          3D

 42 45  0  0  0  0  0  0  0  0999 V2000
   59.0060   78.9860   29.2160 O   0  0  0  0  0  0  0  0  0  0  0  0
   58.1850   79.8940   29.3350 C   0  0  0  0  0  0  0  0  0  0  0  0
   58.2900   80.9290   30.2410 N   0  0  0  0  0  0  0  0  0  0  0  0
   59.3260   81.1570   31.1750 C   0  0  0  0  0  0  0  0  0  0  0  0
   60.3730   81.9950   30.7630 C   0  0  0  0  0  0  0  0  0  0  0  0
   61.4430   82.2790   31.6190 C   0  0  0  0  0  0  0  0  0  0  0  0
   61.4710   81.7240   32.8940 C   0  0  0  0  0  0  0  0  0  0  0  0
   62.7840   82.0690   33.9500 Cl  0  0  0  0  0  0  0  0  0  0  0  0
   60.4400   80.8900   33.3160 C   0  0  0  0  0  0  0  0  0  0  0  0
   59.3710   80.6070   32.4580 C   0  0  0  0  0  0  0  0  0  0  0  0
   56.9930   79.8480   28.4230 C   0  0  0  0  0  0  0  0  0  0  0  0
   56.8970   80.8890   27.4610 C   0  0  0  0  0  0  0  0  0  0  0  0
   55.8390   80.9820   26.5190 C   0  0  0  0  0  0  0  0  0  0  0  0
   55.8440   82.3760   25.3950 S   0  0  0  0  0  0  0  0  0  0  0  0
   54.9770   83.6080   26.4220 C   0  0  0  0  0  0  0  0  0  0  0  0
   53.6870   84.0970   25.7700 C   0  0  0  0  0  0  0  0  0  0  0  0
   53.6850   85.5220   25.6940 O   0  0  0  0  0  0  0  0  0  0  0  0
   54.8050   80.0090   26.5210 C   0  0  0  0  0  0  0  0  0  0  0  0
   53.6520   79.8680   25.7010 C   0  0  0  0  0  0  0  0  0  0  0  0
   53.4070   80.7440   24.7150 F   0  0  0  0  0  0  0  0  0  0  0  0
   52.7370   78.8100   25.8720 C   0  0  0  0  0  0  0  0  0  0  0  0
   52.9350   77.8450   26.8650 C   0  0  0  0  0  0  0  0  0  0  0  0
   54.0540   77.9810   27.6550 C   0  0  0  0  0  0  0  0  0  0  0  0
   54.9440   79.0130   27.4880 C   0  0  0  0  0  0  0  0  0  0  0  0
   55.9740   78.9110   28.4070 C   0  0  0  0  0  0  0  0  0  0  0  0
   55.6680   77.6960   29.2050 C   0  0  0  0  0  0  0  0  0  0  0  0
   56.3240   77.2510   30.1240 O   0  0  0  0  0  0  0  0  0  0  0  0
   54.4920   77.1800   28.6970 N   0  0  0  0  0  0  0  0  0  0  0  0
   57.5470   81.6250   30.2730 H   0  0  0  0  0  0  0  0  0  0  0  0
   60.3526   82.4342   29.7547 H   0  0  0  0  0  0  0  0  0  0  0  0
   62.2580   82.9380   31.2851 H   0  0  0  0  0  0  0  0  0  0  0  0
   60.4652   80.4527   34.3250 H   0  0  0  0  0  0  0  0  0  0  0  0
   58.5597   79.9460   32.7969 H   0  0  0  0  0  0  0  0  0  0  0  0
   57.6808   81.6607   27.4453 H   0  0  0  0  0  0  0  0  0  0  0  0
   54.7324   83.1512   27.3923 H   0  0  0  0  0  0  0  0  0  0  0  0
   55.6432   84.4748   26.5440 H   0  0  0  0  0  0  0  0  0  0  0  0
   53.6109   83.6785   24.7556 H   0  0  0  0  0  0  0  0  0  0  0  0
   52.8302   83.7678   26.3762 H   0  0  0  0  0  0  0  0  0  0  0  0
   54.4020   85.8460   26.2670 H   0  0  0  0  0  0  0  0  0  0  0  0
   51.8562   78.7422   25.2165 H   0  0  0  0  0  0  0  0  0  0  0  0
   52.2281   77.0145   27.0082 H   0  0  0  0  0  0  0  0  0  0  0  0
   54.0410   76.3480   29.0480 H   0  0  0  0  0  0  0  0  0  0  0  0
  1  2  2  0
  2  3  1  0
  3  4  1  0
  4  5  1  0
  5  6  2  0
  6  7  1  0
  7  8  1  0
  7  9  2  0
  9 10  1  0
  2 11  1  0
 11 12  1  0
 12 13  2  0
 13 14  1  0
 14 15  1  0
 15 16  1  0
 16 17  1  0
 13 18  1  0
 18 19  2  0
 19 20  1  0
 19 21  1  0
 21 22  2  0
 22 23  1  0
 23 24  2  0
 24 25  1  0
 25 26  1  0
 26 27  2  0
 26 28  1  0
 10  4  2  0
 25 11  2  0
 24 18  1  0
 28 23  1  0
  3 29  1  0
  5 30  1  0
  6 31  1  0
  9 32  1  0
 10 33  1  0
 12 34  1  0
 15 35  1  0
 15 36  1  0
 16 37  1  0
 16 38  1  0
 17 39  1  0
 21 40  1  0
 22 41  1  0
 28 42  1  0
M  END
>  <meeko>  (1) 
{"is_sidechain": false}

>  <smiles>  (1) 
O=C(Nc1ccc(Cl)cc1)c1cc(SCCO)c2c(F)ccc3c2c1C(=O)N3

>  <vina_score>  (1) 
-7.804

>  <job_id>  (1) 
fb8ac705b56eae95

$$$$
