
     RDKit          3D

 35 38  0  0  0  0  0  0  0  0999 V2000
   60.8580   84.3640   31.3990 N   0  0  0  0  0  0  0  0  0  0  0  0
   60.3290   83.3980   31.0320 C   0  0  0  0  0  0  0  0  0  0  0  0
   59.6780   82.2080   30.5710 C   0  0  0  0  0  0  0  0  0  0  0  0
   59.0340   81.3610   31.4740 C   0  0  0  0  0  0  0  0  0  0  0  0
   58.3970   80.1970   31.0200 C   0  0  0  0  0  0  0  0  0  0  0  0
   58.3840   79.8570   29.6630 C   0  0  0  0  0  0  0  0  0  0  0  0
   57.7800   78.7040   29.1520 N   0  0  0  0  0  0  0  0  0  0  0  0
   56.4680   78.3540   28.8490 C   0  0  0  0  0  0  0  0  0  0  0  0
   55.9380   77.4090   29.6430 N   0  0  0  0  0  0  0  0  0  0  0  0
   54.6660   77.0400   29.4040 C   0  0  0  0  0  0  0  0  0  0  0  0
   53.9020   77.5680   28.3960 C   0  0  0  0  0  0  0  0  0  0  0  0
   54.5290   78.5200   27.6260 C   0  0  0  0  0  0  0  0  0  0  0  0
   53.8520   79.1930   26.5380 C   0  0  0  0  0  0  0  0  0  0  0  0
   53.3160   78.6320   25.3570 C   0  0  0  0  0  0  0  0  0  0  0  0
   52.7530   79.5380   24.5590 N   0  0  0  0  0  0  0  0  0  0  0  0
   52.8790   80.6890   25.2360 N   0  0  0  0  0  0  0  0  0  0  0  0
   52.3940   81.8330   24.7030 N   0  0  0  0  0  0  0  0  0  0  0  0
   52.5600   82.8570   25.4740 C   0  0  0  0  0  0  0  0  0  0  0  0
   53.1950   82.8550   26.8130 C   0  0  0  0  0  0  0  0  0  0  0  0
   53.6590   81.6850   27.2680 C   0  0  0  0  0  0  0  0  0  0  0  0
   53.5230   80.5330   26.4530 C   0  0  0  0  0  0  0  0  0  0  0  0
   55.7920   78.9290   27.8470 N   0  0  0  0  0  0  0  0  0  0  0  0
   59.0420   80.7190   28.7700 C   0  0  0  0  0  0  0  0  0  0  0  0
   59.6810   81.8830   29.2140 C   0  0  0  0  0  0  0  0  0  0  0  0
   59.0260   81.6073   32.5460 H   0  0  0  0  0  0  0  0  0  0  0  0
   57.8975   79.5381   31.7455 H   0  0  0  0  0  0  0  0  0  0  0  0
   58.3870   77.9420   28.8900 H   0  0  0  0  0  0  0  0  0  0  0  0
   54.2155   76.2739   30.0522 H   0  0  0  0  0  0  0  0  0  0  0  0
   52.8634   77.2535   28.2159 H   0  0  0  0  0  0  0  0  0  0  0  0
   53.3592   77.5585   25.1211 H   0  0  0  0  0  0  0  0  0  0  0  0
   52.1942   83.8245   25.0997 H   0  0  0  0  0  0  0  0  0  0  0  0
   53.2813   83.7763   27.4078 H   0  0  0  0  0  0  0  0  0  0  0  0
   54.1372   81.6184   28.2564 H   0  0  0  0  0  0  0  0  0  0  0  0
   59.0555   80.4740   27.6977 H   0  0  0  0  0  0  0  0  0  0  0  0
   60.1859   82.5420   28.4923 H   0  0  0  0  0  0  0  0  0  0  0  0
  1  2  3  0
  2  3  1  0
  3  4  1  0
  4  5  2  0
  5  6  1  0
  6  7  1  0
  7  8  1  0
  8  9  2  0
  9 10  1  0
 10 11  2  0
 11 12  1  0
 12 13  1  0
 13 14  1  0
 14 15  2  0
 15 16  1  0
 16 17  1  0
 17 18  2  0
 18 19  1  0
 19 20  2  0
 20 21  1  0
 12 22  2  0
  6 23  2  0
 23 24  1  0
 24  3  2  0
 22  8  1  0
 21 13  2  0
 21 16  1  0
  4 25  1  0
  5 26  1  0
  7 27  1  0
 10 28  1  0
 11 29  1  0
 14 30  1  0
 18 31  1  0
 19 32  1  0
 20 33  1  0
 23 34  1  0
 24 35  1  0
M  END
>  <meeko>  (1) 
{"is_sidechain": false}

>  <smiles>  (1) 
N#Cc1ccc(Nc2nccc(-c3cnn4ncccc34)n2)cc1

>  <vina_score>  (1) 
-9.242

>  <job_id>  (1) 
fbc60fb541897072

$$$$
