
     RDKit          3D

 48 51  0  0  0  0  0  0  0  0999 V2000
   54.7400   77.5570   28.7980 C   0  0  0  0  0  0  0  0  0  0  0  0
   56.0990   77.7580   29.0040 C   0  0  0  0  0  0  0  0  0  0  0  0
   56.7530   78.8130   28.3630 C   0  0  0  0  0  0  0  0  0  0  0  0
   58.2360   79.0290   28.5630 C   0  0  0  0  0  0  0  0  0  0  0  0
   58.5780   79.9600   29.7060 C   0  0  0  0  0  0  0  0  0  0  0  0
   57.9110   79.8570   30.9290 C   0  0  0  0  0  0  0  0  0  0  0  0
   58.2450   80.7300   31.9610 C   0  0  0  0  0  0  0  0  0  0  0  0
   59.2440   81.6740   31.7510 C   0  0  0  0  0  0  0  0  0  0  0  0
   59.8620   81.7130   30.5020 C   0  0  0  0  0  0  0  0  0  0  0  0
   59.5500   80.8810   29.4820 N   0  0  0  0  0  0  0  0  0  0  0  0
   60.9160   82.7650   30.2940 C   0  0  0  0  0  0  0  0  0  0  0  0
   61.7990   82.8640   31.5460 C   0  0  0  0  0  0  0  0  0  0  0  0
   61.1160   82.8410   32.8560 N   0  0  0  0  0  0  0  0  0  0  0  0
   59.6600   82.6950   32.7670 C   0  0  0  0  0  0  0  0  0  0  0  0
   56.0110   79.6650   27.5240 C   0  0  0  0  0  0  0  0  0  0  0  0
   54.6310   79.4910   27.3020 C   0  0  0  0  0  0  0  0  0  0  0  0
   53.9380   80.3620   26.4500 N   0  0  0  0  0  0  0  0  0  0  0  0
   53.3180   81.5290   27.1170 C   0  0  0  0  0  0  0  0  0  0  0  0
   53.3620   82.8320   26.2880 C   0  0  0  0  0  0  0  0  0  0  0  0
   52.5640   82.9060   25.1000 O   0  0  0  0  0  0  0  0  0  0  0  0
   52.7630   81.8880   24.1360 C   0  0  0  0  0  0  0  0  0  0  0  0
   52.2520   80.6020   24.5540 N   0  0  0  0  0  0  0  0  0  0  0  0
   53.2560   79.8310   25.2720 C   0  0  0  0  0  0  0  0  0  0  0  0
   54.0200   78.4100   27.9550 C   0  0  0  0  0  0  0  0  0  0  0  0
   54.2277   76.7231   29.3002 H   0  0  0  0  0  0  0  0  0  0  0  0
   56.6597   77.0870   29.6713 H   0  0  0  0  0  0  0  0  0  0  0  0
   58.7032   78.0531   28.7612 H   0  0  0  0  0  0  0  0  0  0  0  0
   58.6133   79.5032   27.6450 H   0  0  0  0  0  0  0  0  0  0  0  0
   57.1311   79.0952   31.0751 H   0  0  0  0  0  0  0  0  0  0  0  0
   57.7257   80.6736   32.9291 H   0  0  0  0  0  0  0  0  0  0  0  0
   61.5378   82.4940   29.4280 H   0  0  0  0  0  0  0  0  0  0  0  0
   60.4321   83.7357   30.1106 H   0  0  0  0  0  0  0  0  0  0  0  0
   62.5012   82.0176   31.5237 H   0  0  0  0  0  0  0  0  0  0  0  0
   62.2660   83.8582   31.4865 H   0  0  0  0  0  0  0  0  0  0  0  0
   61.4830   82.0530   33.3910 H   0  0  0  0  0  0  0  0  0  0  0  0
   59.2758   82.3894   33.7513 H   0  0  0  0  0  0  0  0  0  0  0  0
   59.2465   83.6648   32.4533 H   0  0  0  0  0  0  0  0  0  0  0  0
   56.5275   80.4972   27.0233 H   0  0  0  0  0  0  0  0  0  0  0  0
   52.2650   81.2880   27.3246 H   0  0  0  0  0  0  0  0  0  0  0  0
   53.9014   81.7167   28.0305 H   0  0  0  0  0  0  0  0  0  0  0  0
   53.0397   83.6501   26.9489 H   0  0  0  0  0  0  0  0  0  0  0  0
   54.3985   82.8887   25.9241 H   0  0  0  0  0  0  0  0  0  0  0  0
   52.2532   82.1818   23.2066 H   0  0  0  0  0  0  0  0  0  0  0  0
   53.8484   81.7788   23.9943 H   0  0  0  0  0  0  0  0  0  0  0  0
   51.9950   80.0810   23.7200 H   0  0  0  0  0  0  0  0  0  0  0  0
   52.7607   78.9031   25.5940 H   0  0  0  0  0  0  0  0  0  0  0  0
   54.0726   79.7708   24.5375 H   0  0  0  0  0  0  0  0  0  0  0  0
   52.9462   78.2284   27.8000 H   0  0  0  0  0  0  0  0  0  0  0  0
  1  2  1  0
  2  3  2  0
  3  4  1  0
  4  5  1  0
  5  6  1  0
  6  7  2  0
  7  8  1  0
  8  9  2  0
  9 10  1  0
  9 11  1  0
 11 12  1  0
 12 13  1  0
 13 14  1  0
  3 15  1  0
 15 16  2  0
 16 17  1  0
 17 18  1  0
 18 19  1  0
 19 20  1  0
 20 21  1  0
 21 22  1  0
 22 23  1  0
 16 24  1  0
 24  1  2  0
 10  5  2  0
 23 17  1  0
 14  8  1  0
  1 25  1  0
  2 26  1  0
  4 27  1  0
  4 28  1  0
  6 29  1  0
  7 30  1  0
 11 31  1  0
 11 32  1  0
 12 33  1  0
 12 34  1  0
 13 35  1  0
 14 36  1  0
 14 37  1  0
 15 38  1  0
 18 39  1  0
 18 40  1  0
 19 41  1  0
 19 42  1  0
 21 43  1  0
 21 44  1  0
 22 45  1  0
 23 46  1  0
 23 47  1  0
 24 48  1  0
M  END
>  <meeko>  (1) 
{"is_sidechain": false}

>  <smiles>  (1) 
c1cc(Cc2ccc3c(n2)CCNC3)cc(N2CCOCNC2)c1

>  <vina_score>  (1) 
-6.991

>  <job_id>  (1) 
fbe199a51a1f3b6e

$$$$
