
     RDKit          3D

 54 57  0  0  0  0  0  0  0  0999 V2000
   55.8570   82.1040   25.5510 C   0  0  0  0  0  0  0  0  0  0  0  0
   55.3370   80.9090   26.2960 C   0  0  0  0  0  0  0  0  0  0  0  0
   56.2610   80.3070   27.3560 C   0  0  0  0  0  0  0  0  0  0  0  0
   57.4610   80.9350   27.6450 N   0  0  0  0  0  0  0  0  0  0  0  0
   58.3850   80.5800   28.7190 C   0  0  1  0  0  0  0  0  0  0  0  0
   59.2330   81.7720   29.1710 C   0  0  0  0  0  0  0  0  0  0  0  0
   60.1750   81.3570   30.3010 C   0  0  0  0  0  0  0  0  0  0  0  0
   59.4240   80.6530   31.4330 C   0  0  0  0  0  0  0  0  0  0  0  0
   58.6820   79.4820   30.9550 N   0  0  0  0  0  0  0  0  0  0  0  0
   57.7080   79.8830   29.9210 C   0  0  0  0  0  0  0  0  0  0  0  0
   55.9580   79.2160   28.0080 N   0  0  0  0  0  0  0  0  0  0  0  0
   54.7710   78.6150   27.7460 C   0  0  0  0  0  0  0  0  0  0  0  0
   54.2200   77.4750   28.2800 C   0  0  0  0  0  0  0  0  0  0  0  0
   52.9770   77.3480   27.6580 C   0  0  0  0  0  0  0  0  0  0  0  0
   52.7350   78.3250   26.7890 N   0  0  0  0  0  0  0  0  0  0  0  0
   53.8530   79.1180   26.8180 N   0  0  0  0  0  0  0  0  0  0  0  0
   54.1420   80.3040   26.0700 C   0  0  0  0  0  0  0  0  0  0  0  0
   53.2230   80.8190   25.1340 N   0  0  0  0  0  0  0  0  0  0  0  0
   53.0550   80.4630   23.7240 C   0  0  2  0  0  0  0  0  0  0  0  0
   53.3100   81.7320   22.8810 C   0  0  0  0  0  0  0  0  0  0  0  0
   52.5760   81.6690   21.5470 C   0  0  0  0  0  0  0  0  0  0  0  0
   51.0530   81.6360   21.7540 C   0  0  1  0  0  0  0  0  0  0  0  0
   50.4390   80.9820   20.5990 N   0  0  0  0  0  0  0  0  0  0  0  0
   50.6470   80.9350   23.0620 C   0  0  0  0  0  0  0  0  0  0  0  0
   51.6560   79.8670   23.4790 C   0  0  0  0  0  0  0  0  0  0  0  0
   56.1894   82.8678   26.2694 H   0  0  0  0  0  0  0  0  0  0  0  0
   56.7049   81.8015   24.9188 H   0  0  0  0  0  0  0  0  0  0  0  0
   55.0578   82.5183   24.9188 H   0  0  0  0  0  0  0  0  0  0  0  0
   57.5520   81.8970   27.3500 H   0  0  0  0  0  0  0  0  0  0  0  0
   59.0613   79.8333   28.2773 H   0  0  0  0  0  0  0  0  0  0  0  0
   59.8265   82.1381   28.3203 H   0  0  0  0  0  0  0  0  0  0  0  0
   58.5659   82.5668   29.5360 H   0  0  0  0  0  0  0  0  0  0  0  0
   60.9357   80.6723   29.8978 H   0  0  0  0  0  0  0  0  0  0  0  0
   60.6405   82.2655   30.7109 H   0  0  0  0  0  0  0  0  0  0  0  0
   60.1502   80.3276   32.1924 H   0  0  0  0  0  0  0  0  0  0  0  0
   58.6996   81.3654   31.8547 H   0  0  0  0  0  0  0  0  0  0  0  0
   59.3350   78.8080   30.5560 H   0  0  0  0  0  0  0  0  0  0  0  0
   57.1842   78.9853   29.5608 H   0  0  0  0  0  0  0  0  0  0  0  0
   57.0085   80.5995   30.3763 H   0  0  0  0  0  0  0  0  0  0  0  0
   54.6625   76.8074   29.0340 H   0  0  0  0  0  0  0  0  0  0  0  0
   52.2734   76.5281   27.8644 H   0  0  0  0  0  0  0  0  0  0  0  0
   52.3700   81.1660   25.5590 H   0  0  0  0  0  0  0  0  0  0  0  0
   53.7753   79.6862   23.4279 H   0  0  0  0  0  0  0  0  0  0  0  0
   52.9589   82.6109   23.4417 H   0  0  0  0  0  0  0  0  0  0  0  0
   54.3891   81.8034   22.6798 H   0  0  0  0  0  0  0  0  0  0  0  0
   52.8383   82.5552   20.9505 H   0  0  0  0  0  0  0  0  0  0  0  0
   52.8776   80.7486   21.0255 H   0  0  0  0  0  0  0  0  0  0  0  0
   50.6924   82.6715   21.8413 H   0  0  0  0  0  0  0  0  0  0  0  0
   49.6610   81.5440   20.2550 H   0  0  0  0  0  0  0  0  0  0  0  0
   50.0450   80.0840   20.8770 H   0  0  0  0  0  0  0  0  0  0  0  0
   50.5770   81.6879   23.8609 H   0  0  0  0  0  0  0  0  0  0  0  0
   49.6793   80.4395   22.8943 H   0  0  0  0  0  0  0  0  0  0  0  0
   51.3056   79.3893   24.4059 H   0  0  0  0  0  0  0  0  0  0  0  0
   51.7355   79.1354   22.6614 H   0  0  0  0  0  0  0  0  0  0  0  0
  1  2  1  0
  2  3  1  0
  3  4  1  0
  4  5  1  0
  5  6  1  0
  6  7  1  0
  7  8  1  0
  8  9  1  0
  9 10  1  0
  3 11  2  0
 11 12  1  0
 12 13  2  0
 13 14  1  0
 14 15  2  0
 15 16  1  0
 16 17  1  0
 17 18  1  0
 18 19  1  0
 19 20  1  0
 20 21  1  0
 21 22  1  0
 22 23  1  0
 22 24  1  0
 24 25  1  0
 17  2  2  0
 25 19  1  0
 10  5  1  0
 16 12  1  0
  1 26  1  0
  1 27  1  0
  1 28  1  0
  4 29  1  0
  5 30  1  6
  6 31  1  0
  6 32  1  0
  7 33  1  0
  7 34  1  0
  8 35  1  0
  8 36  1  0
  9 37  1  0
 10 38  1  0
 10 39  1  0
 13 40  1  0
 14 41  1  0
 18 42  1  0
 19 43  1  1
 20 44  1  0
 20 45  1  0
 21 46  1  0
 21 47  1  0
 22 48  1  6
 23 49  1  0
 23 50  1  0
 24 51  1  0
 24 52  1  0
 25 53  1  0
 25 54  1  0
M  END
>  <meeko>  (1) 
{"is_sidechain": false}

>  <smiles>  (1) 
Cc1c(N[C@H]2CCCNC2)nc2ccnn2c1N[C@H]1CC[C@H](N)CC1

>  <vina_score>  (1) 
-8.101

>  <job_id>  (1) 
fc08d4526d70cf45

$$$$
