
     RDKit          3D

 53 54  0  0  0  0  0  0  0  0999 V2000
   61.6470   83.1090   33.4560 C   0  0  0  0  0  0  0  0  0  0  0  0
   60.1780   83.4350   33.6620 C   0  0  1  0  0  0  0  0  0  0  0  0
   60.0600   84.3530   34.7700 O   0  0  0  0  0  0  0  0  0  0  0  0
   59.3660   83.9770   32.1380 S   0  0  0  0  0  0  0  0  0  0  0  0
   60.3810   84.6150   31.3150 O   0  0  0  0  0  0  0  0  0  0  0  0
   58.1500   84.6900   32.4870 O   0  0  0  0  0  0  0  0  0  0  0  0
   58.9000   82.4790   31.3030 C   0  0  0  0  0  0  0  0  0  0  0  0
   58.5440   81.3590   32.0520 C   0  0  0  0  0  0  0  0  0  0  0  0
   58.1850   80.1790   31.3920 C   0  0  0  0  0  0  0  0  0  0  0  0
   58.1880   80.0920   29.9880 C   0  0  0  0  0  0  0  0  0  0  0  0
   57.8060   78.8820   29.3970 N   0  0  0  0  0  0  0  0  0  0  0  0
   56.5850   78.3370   29.0130 C   0  0  0  0  0  0  0  0  0  0  0  0
   56.0150   77.3240   29.6770 N   0  0  0  0  0  0  0  0  0  0  0  0
   54.8310   76.8630   29.2290 C   0  0  0  0  0  0  0  0  0  0  0  0
   54.1850   77.3740   28.1320 C   0  0  0  0  0  0  0  0  0  0  0  0
   52.8770   76.8550   27.6680 C   0  0  0  0  0  0  0  0  0  0  0  0
   51.8200   77.5480   28.1730 F   0  0  0  0  0  0  0  0  0  0  0  0
   52.6640   75.5580   28.0340 F   0  0  0  0  0  0  0  0  0  0  0  0
   52.7410   76.8750   26.3150 F   0  0  0  0  0  0  0  0  0  0  0  0
   54.8460   78.3990   27.5100 C   0  0  0  0  0  0  0  0  0  0  0  0
   54.2400   78.9700   26.4130 O   0  0  0  0  0  0  0  0  0  0  0  0
   53.6830   80.2880   26.6150 C   0  0  2  0  0  0  0  0  0  0  0  0
   52.1850   80.2120   26.3390 C   0  0  0  0  0  0  0  0  0  0  0  0
   54.5060   81.5090   25.5520 S   0  0  0  0  0  0  0  0  0  0  0  0
   53.8710   81.4850   24.2410 O   0  0  0  0  0  0  0  0  0  0  0  0
   55.9350   81.2300   25.6310 O   0  0  0  0  0  0  0  0  0  0  0  0
   54.1900   83.0830   26.3930 C   0  0  0  0  0  0  0  0  0  0  0  0
   53.2240   83.8040   25.7340 F   0  0  0  0  0  0  0  0  0  0  0  0
   53.6610   82.8850   27.6450 F   0  0  0  0  0  0  0  0  0  0  0  0
   55.4480   83.9610   26.5310 C   0  0  2  0  0  0  0  0  0  0  0  0
   56.2650   83.6110   27.6450 O   0  0  0  0  0  0  0  0  0  0  0  0
   55.1900   85.7660   26.5200 S   0  0  0  0  0  0  0  0  0  0  0  0
   56.0260   78.8970   27.9300 N   0  0  0  0  0  0  0  0  0  0  0  0
   58.5630   81.2300   29.2650 C   0  0  0  0  0  0  0  0  0  0  0  0
   58.9260   82.4170   29.9120 C   0  0  0  0  0  0  0  0  0  0  0  0
   62.1390   82.9998   34.4338 H   0  0  0  0  0  0  0  0  0  0  0  0
   61.7384   82.1687   32.8925 H   0  0  0  0  0  0  0  0  0  0  0  0
   62.1276   83.9223   32.8925 H   0  0  0  0  0  0  0  0  0  0  0  0
   59.6248   82.5223   33.9282 H   0  0  0  0  0  0  0  0  0  0  0  0
   60.2510   83.8220   35.5700 H   0  0  0  0  0  0  0  0  0  0  0  0
   58.5453   81.4024   33.1511 H   0  0  0  0  0  0  0  0  0  0  0  0
   57.8937   79.2991   31.9844 H   0  0  0  0  0  0  0  0  0  0  0  0
   58.5470   78.2420   29.1560 H   0  0  0  0  0  0  0  0  0  0  0  0
   54.3568   76.0322   29.7721 H   0  0  0  0  0  0  0  0  0  0  0  0
   53.8472   80.6191   27.6510 H   0  0  0  0  0  0  0  0  0  0  0  0
   51.6374   80.1842   27.2926 H   0  0  0  0  0  0  0  0  0  0  0  0
   51.8731   81.0955   25.7627 H   0  0  0  0  0  0  0  0  0  0  0  0
   51.9641   79.3015   25.7627 H   0  0  0  0  0  0  0  0  0  0  0  0
   55.9735   83.7230   25.5944 H   0  0  0  0  0  0  0  0  0  0  0  0
   56.9050   82.9620   27.2970 H   0  0  0  0  0  0  0  0  0  0  0  0
   54.9290   85.8840   27.8370 H   0  0  0  0  0  0  0  0  0  0  0  0
   58.5727   81.1909   28.1657 H   0  0  0  0  0  0  0  0  0  0  0  0
   59.2302   83.2961   29.3249 H   0  0  0  0  0  0  0  0  0  0  0  0
  1  2  1  0
  2  3  1  0
  2  4  1  0
  4  5  2  0
  4  6  2  0
  4  7  1  0
  7  8  1  0
  8  9  2  0
  9 10  1  0
 10 11  1  0
 11 12  1  0
 12 13  2  0
 13 14  1  0
 14 15  2  0
 15 16  1  0
 16 17  1  0
 16 18  1  0
 16 19  1  0
 15 20  1  0
 20 21  1  0
 21 22  1  0
 22 23  1  0
 22 24  1  0
 24 25  2  0
 24 26  2  0
 24 27  1  0
 27 28  1  0
 27 29  1  0
 27 30  1  0
 30 31  1  0
 30 32  1  0
 20 33  2  0
 10 34  2  0
 34 35  1  0
 35  7  2  0
 33 12  1  0
  1 36  1  0
  1 37  1  0
  1 38  1  0
  2 39  1  1
  3 40  1  0
  8 41  1  0
  9 42  1  0
 11 43  1  0
 14 44  1  0
 22 45  1  1
 23 46  1  0
 23 47  1  0
 23 48  1  0
 30 49  1  6
 31 50  1  0
 32 51  1  0
 34 52  1  0
 35 53  1  0
M  END
>  <meeko>  (1) 
{"is_sidechain": false}

>  <smiles>  (1) 
C[C@@H](O)S(=O)(=O)c1ccc(Nc2ncc(C(F)(F)F)c(O[C@H](C)S(=O)(=O)C(F)(F)[C@H](O)S)n2)cc1

>  <vina_score>  (1) 
-8.104

>  <job_id>  (1) 
fc781232aab40d25

$$$$
