
     RDKit          3D

 49 51  0  0  0  0  0  0  0  0999 V2000
   52.5600   76.7900   27.2750 C   0  0  0  0  0  0  0  0  0  0  0  0
   53.7620   77.1580   28.0680 C   0  0  0  0  0  0  0  0  0  0  0  0
   54.1830   76.4610   29.1030 N   0  0  0  0  0  0  0  0  0  0  0  0
   55.3300   77.0660   29.5200 C   0  0  0  0  0  0  0  0  0  0  0  0
   55.6340   78.1710   28.7480 C   0  0  0  0  0  0  0  0  0  0  0  0
   56.7870   79.0580   28.8370 C   0  0  0  0  0  0  0  0  0  0  0  0
   57.1690   79.8540   27.7820 C   0  0  0  0  0  0  0  0  0  0  0  0
   58.2530   80.6580   28.0200 C   0  0  0  0  0  0  0  0  0  0  0  0
   58.9100   80.6880   29.1930 N   0  0  0  0  0  0  0  0  0  0  0  0
   58.4630   79.8790   30.1630 C   0  0  0  0  0  0  0  0  0  0  0  0
   59.0900   79.8400   31.3950 N   0  0  0  0  0  0  0  0  0  0  0  0
   59.1730   81.0850   32.1440 C   0  0  0  0  0  0  0  0  0  0  0  0
   60.3320   80.9650   33.1340 C   0  0  0  0  0  0  0  0  0  0  0  0
   57.8700   81.3570   32.8970 C   0  0  0  0  0  0  0  0  0  0  0  0
   57.4110   79.0640   30.0290 N   0  0  0  0  0  0  0  0  0  0  0  0
   54.5810   78.2520   27.8430 N   0  0  0  0  0  0  0  0  0  0  0  0
   54.3840   79.3220   26.8620 C   0  0  0  0  0  0  0  0  0  0  0  0
   53.3420   80.3710   27.2700 C   0  0  0  0  0  0  0  0  0  0  0  0
   53.3030   81.5200   26.2550 C   0  0  0  0  0  0  0  0  0  0  0  0
   53.5660   81.0960   24.8730 N   0  0  0  0  0  0  0  0  0  0  0  0
   52.9350   81.9970   23.9140 C   0  0  0  0  0  0  0  0  0  0  0  0
   53.2150   79.7000   24.6270 C   0  0  0  0  0  0  0  0  0  0  0  0
   54.1280   78.7830   25.4440 C   0  0  0  0  0  0  0  0  0  0  0  0
   51.7344   76.5372   27.9565 H   0  0  0  0  0  0  0  0  0  0  0  0
   52.2651   77.6390   26.6408 H   0  0  0  0  0  0  0  0  0  0  0  0
   52.7909   75.9214   26.6408 H   0  0  0  0  0  0  0  0  0  0  0  0
   55.9393   76.7178   30.3671 H   0  0  0  0  0  0  0  0  0  0  0  0
   56.6421   79.8457   26.8165 H   0  0  0  0  0  0  0  0  0  0  0  0
   58.6041   81.3131   27.2091 H   0  0  0  0  0  0  0  0  0  0  0  0
   58.7100   79.0430   31.8940 H   0  0  0  0  0  0  0  0  0  0  0  0
   59.3404   81.9229   31.4512 H   0  0  0  0  0  0  0  0  0  0  0  0
   59.9420   81.0054   34.1617 H   0  0  0  0  0  0  0  0  0  0  0  0
   60.8514   80.0083   32.9762 H   0  0  0  0  0  0  0  0  0  0  0  0
   61.0364   81.7950   32.9762 H   0  0  0  0  0  0  0  0  0  0  0  0
   58.0575   81.3179   33.9802 H   0  0  0  0  0  0  0  0  0  0  0  0
   57.4912   82.3536   32.6262 H   0  0  0  0  0  0  0  0  0  0  0  0
   57.1241   80.5952   32.6262 H   0  0  0  0  0  0  0  0  0  0  0  0
   55.3445   79.8579   26.8432 H   0  0  0  0  0  0  0  0  0  0  0  0
   52.3508   79.8963   27.3163 H   0  0  0  0  0  0  0  0  0  0  0  0
   53.6167   80.7780   28.2543 H   0  0  0  0  0  0  0  0  0  0  0  0
   52.3058   81.9829   26.2925 H   0  0  0  0  0  0  0  0  0  0  0  0
   54.1024   82.2225   26.5335 H   0  0  0  0  0  0  0  0  0  0  0  0
   52.3855   82.7816   24.4548 H   0  0  0  0  0  0  0  0  0  0  0  0
   53.7076   82.4595   23.2822 H   0  0  0  0  0  0  0  0  0  0  0  0
   52.2363   81.4290   23.2822 H   0  0  0  0  0  0  0  0  0  0  0  0
   52.1688   79.5294   24.9210 H   0  0  0  0  0  0  0  0  0  0  0  0
   53.3409   79.4775   23.5571 H   0  0  0  0  0  0  0  0  0  0  0  0
   53.6553   77.7929   25.5225 H   0  0  0  0  0  0  0  0  0  0  0  0
   55.0971   78.7273   24.9265 H   0  0  0  0  0  0  0  0  0  0  0  0
  1  2  1  0
  2  3  2  0
  3  4  1  0
  4  5  2  0
  5  6  1  0
  6  7  1  0
  7  8  2  0
  8  9  1  0
  9 10  2  0
 10 11  1  0
 11 12  1  0
 12 13  1  0
 12 14  1  0
 10 15  1  0
  5 16  1  0
 16 17  1  0
 17 18  1  0
 18 19  1  0
 19 20  1  0
 20 21  1  0
 20 22  1  0
 22 23  1  0
 16  2  1  0
 23 17  1  0
 15  6  2  0
  1 24  1  0
  1 25  1  0
  1 26  1  0
  4 27  1  0
  7 28  1  0
  8 29  1  0
 11 30  1  0
 12 31  1  0
 13 32  1  0
 13 33  1  0
 13 34  1  0
 14 35  1  0
 14 36  1  0
 14 37  1  0
 17 38  1  0
 18 39  1  0
 18 40  1  0
 19 41  1  0
 19 42  1  0
 21 43  1  0
 21 44  1  0
 21 45  1  0
 22 46  1  0
 22 47  1  0
 23 48  1  0
 23 49  1  0
M  END
>  <meeko>  (1) 
{"is_sidechain": false}

>  <smiles>  (1) 
Cc1ncc(-c2ccnc(NC(C)C)n2)n1C1CCN(C)CC1

>  <vina_score>  (1) 
-7.851

>  <job_id>  (1) 
fc7e48328d770c63

$$$$
