
     RDKit          3D

 43 45  0  0  0  0  0  0  0  0999 V2000
   62.9810   82.5310   31.3930 C   0  0  0  0  0  0  0  0  0  0  0  0
   61.6930   82.6080   31.9910 O   0  0  0  0  0  0  0  0  0  0  0  0
   60.6760   81.9630   31.3440 C   0  0  0  0  0  0  0  0  0  0  0  0
   60.2900   82.1540   30.0190 C   0  0  0  0  0  0  0  0  0  0  0  0
   59.2230   81.4230   29.4780 C   0  0  0  0  0  0  0  0  0  0  0  0
   58.5290   80.4960   30.2550 C   0  0  0  0  0  0  0  0  0  0  0  0
   57.4500   79.7260   29.7850 N   0  0  0  0  0  0  0  0  0  0  0  0
   57.3070   79.1030   28.5630 C   0  0  0  0  0  0  0  0  0  0  0  0
   58.1240   79.1070   27.6480 O   0  0  0  0  0  0  0  0  0  0  0  0
   56.0290   78.3320   28.3860 C   0  0  0  0  0  0  0  0  0  0  0  0
   55.9100   77.1710   29.1800 C   0  0  0  0  0  0  0  0  0  0  0  0
   54.7360   76.4270   29.1790 C   0  0  0  0  0  0  0  0  0  0  0  0
   53.6790   76.8470   28.3920 C   0  0  0  0  0  0  0  0  0  0  0  0
   52.5380   76.1470   28.3940 F   0  0  0  0  0  0  0  0  0  0  0  0
   53.7790   77.9830   27.5880 C   0  0  0  0  0  0  0  0  0  0  0  0
   54.9610   78.7430   27.5370 C   0  0  0  0  0  0  0  0  0  0  0  0
   55.0850   79.8560   26.6830 N   0  0  0  0  0  0  0  0  0  0  0  0
   54.5680   79.6270   25.2990 C   0  0  0  0  0  0  0  0  0  0  0  0
   53.1060   80.0730   25.1650 C   0  0  0  0  0  0  0  0  0  0  0  0
   52.9570   81.4540   25.5280 O   0  0  0  0  0  0  0  0  0  0  0  0
   53.3250   81.6490   26.8990 C   0  0  0  0  0  0  0  0  0  0  0  0
   54.7790   81.2230   27.1720 C   0  0  0  0  0  0  0  0  0  0  0  0
   58.9210   80.3030   31.5830 C   0  0  0  0  0  0  0  0  0  0  0  0
   59.9850   81.0330   32.1220 C   0  0  0  0  0  0  0  0  0  0  0  0
   63.7484   82.4851   32.1798 H   0  0  0  0  0  0  0  0  0  0  0  0
   63.0418   81.6276   30.7683 H   0  0  0  0  0  0  0  0  0  0  0  0
   63.1490   83.4207   30.7683 H   0  0  0  0  0  0  0  0  0  0  0  0
   60.8258   82.8830   29.3934 H   0  0  0  0  0  0  0  0  0  0  0  0
   58.9302   81.5823   28.4297 H   0  0  0  0  0  0  0  0  0  0  0  0
   56.6300   79.6730   30.3880 H   0  0  0  0  0  0  0  0  0  0  0  0
   56.7558   76.8515   29.8065 H   0  0  0  0  0  0  0  0  0  0  0  0
   54.6489   75.5191   29.7940 H   0  0  0  0  0  0  0  0  0  0  0  0
   52.9147   78.2906   26.9811 H   0  0  0  0  0  0  0  0  0  0  0  0
   55.1829   80.1988   24.5884 H   0  0  0  0  0  0  0  0  0  0  0  0
   54.6217   78.5496   25.0839 H   0  0  0  0  0  0  0  0  0  0  0  0
   52.7821   79.9375   24.1225 H   0  0  0  0  0  0  0  0  0  0  0  0
   52.4888   79.4631   25.8411 H   0  0  0  0  0  0  0  0  0  0  0  0
   53.2144   82.7147   27.1483 H   0  0  0  0  0  0  0  0  0  0  0  0
   52.6657   81.0246   27.5199 H   0  0  0  0  0  0  0  0  0  0  0  0
   55.4524   81.9335   26.6702 H   0  0  0  0  0  0  0  0  0  0  0  0
   54.9218   81.2215   28.2627 H   0  0  0  0  0  0  0  0  0  0  0  0
   58.3885   79.5715   32.2086 H   0  0  0  0  0  0  0  0  0  0  0  0
   60.2802   80.8726   33.1694 H   0  0  0  0  0  0  0  0  0  0  0  0
  1  2  1  0
  2  3  1  0
  3  4  1  0
  4  5  2  0
  5  6  1  0
  6  7  1  0
  7  8  1  0
  8  9  2  0
  8 10  1  0
 10 11  1  0
 11 12  2  0
 12 13  1  0
 13 14  1  0
 13 15  2  0
 15 16  1  0
 16 17  1  0
 17 18  1  0
 18 19  1  0
 19 20  1  0
 20 21  1  0
 21 22  1  0
  6 23  2  0
 23 24  1  0
 24  3  2  0
 16 10  2  0
 22 17  1  0
  1 25  1  0
  1 26  1  0
  1 27  1  0
  4 28  1  0
  5 29  1  0
  7 30  1  0
 11 31  1  0
 12 32  1  0
 15 33  1  0
 18 34  1  0
 18 35  1  0
 19 36  1  0
 19 37  1  0
 21 38  1  0
 21 39  1  0
 22 40  1  0
 22 41  1  0
 23 42  1  0
 24 43  1  0
M  END
>  <meeko>  (1) 
{"is_sidechain": false}

>  <smiles>  (1) 
COc1ccc(NC(=O)c2ccc(F)cc2N2CCOCC2)cc1

>  <vina_score>  (1) 
-7.719

>  <job_id>  (1) 
fc89f0dbcb2dd923

$$$$
