
     RDKit          3D

 43 45  0  0  0  0  0  0  0  0999 V2000
   58.5100   79.1070   28.0200 O   0  0  0  0  0  0  0  0  0  0  0  0
   57.6560   79.2590   28.8890 C   0  0  0  0  0  0  0  0  0  0  0  0
   57.8090   79.9930   30.0510 N   0  0  0  0  0  0  0  0  0  0  0  0
   58.9410   80.7250   30.4710 C   0  0  0  0  0  0  0  0  0  0  0  0
   59.6960   81.5490   29.6380 C   0  0  0  0  0  0  0  0  0  0  0  0
   60.8040   82.2440   30.1390 C   0  0  0  0  0  0  0  0  0  0  0  0
   61.1770   82.1260   31.4840 C   0  0  0  0  0  0  0  0  0  0  0  0
   62.3860   82.8610   32.0160 C   0  0  0  0  0  0  0  0  0  0  0  0
   63.5380   83.0100   31.0280 C   0  0  0  0  0  0  0  0  0  0  0  0
   64.2260   82.0650   30.6450 O   0  0  0  0  0  0  0  0  0  0  0  0
   63.7740   84.2960   30.5740 N   0  0  0  0  0  0  0  0  0  0  0  0
   64.8300   84.5750   29.6170 C   0  0  0  0  0  0  0  0  0  0  0  0
   64.5600   86.0010   29.1630 C   0  0  0  0  0  0  0  0  0  0  0  0
   63.9260   86.6360   30.3960 C   0  0  0  0  0  0  0  0  0  0  0  0
   63.0680   85.5090   30.9560 C   0  0  0  0  0  0  0  0  0  0  0  0
   60.4180   81.2990   32.3190 C   0  0  0  0  0  0  0  0  0  0  0  0
   59.3100   80.6090   31.8170 C   0  0  0  0  0  0  0  0  0  0  0  0
   56.3320   78.5940   28.6880 C   0  0  0  0  0  0  0  0  0  0  0  0
   56.0050   77.4950   29.5000 C   0  0  0  0  0  0  0  0  0  0  0  0
   54.7800   76.8370   29.3540 C   0  0  0  0  0  0  0  0  0  0  0  0
   53.8660   77.2680   28.3950 C   0  0  0  0  0  0  0  0  0  0  0  0
   54.1770   78.3570   27.5840 C   0  0  0  0  0  0  0  0  0  0  0  0
   55.4000   79.0110   27.7340 C   0  0  0  0  0  0  0  0  0  0  0  0
   55.6520   80.0560   26.9300 F   0  0  0  0  0  0  0  0  0  0  0  0
   57.0200   80.0190   30.6870 H   0  0  0  0  0  0  0  0  0  0  0  0
   59.4194   81.6543   28.5786 H   0  0  0  0  0  0  0  0  0  0  0  0
   61.3885   82.8905   29.4679 H   0  0  0  0  0  0  0  0  0  0  0  0
   62.0658   83.8683   32.3207 H   0  0  0  0  0  0  0  0  0  0  0  0
   62.7722   82.2541   32.8481 H   0  0  0  0  0  0  0  0  0  0  0  0
   65.8182   84.4987   30.0941 H   0  0  0  0  0  0  0  0  0  0  0  0
   64.8367   83.8619   28.7795 H   0  0  0  0  0  0  0  0  0  0  0  0
   65.4944   86.5132   28.8901 H   0  0  0  0  0  0  0  0  0  0  0  0
   63.9231   86.0590   28.2680 H   0  0  0  0  0  0  0  0  0  0  0  0
   64.6935   86.9464   31.1203 H   0  0  0  0  0  0  0  0  0  0  0  0
   63.3526   87.5470   30.1693 H   0  0  0  0  0  0  0  0  0  0  0  0
   62.9896   85.5859   32.0505 H   0  0  0  0  0  0  0  0  0  0  0  0
   62.0377   85.5344   30.5715 H   0  0  0  0  0  0  0  0  0  0  0  0
   60.6947   81.1907   33.3781 H   0  0  0  0  0  0  0  0  0  0  0  0
   58.7207   79.9668   32.4881 H   0  0  0  0  0  0  0  0  0  0  0  0
   56.7212   77.1482   30.2595 H   0  0  0  0  0  0  0  0  0  0  0  0
   54.5377   75.9781   29.9971 H   0  0  0  0  0  0  0  0  0  0  0  0
   52.9024   76.7503   28.2787 H   0  0  0  0  0  0  0  0  0  0  0  0
   53.4584   78.7011   26.8256 H   0  0  0  0  0  0  0  0  0  0  0  0
  1  2  2  0
  2  3  1  0
  3  4  1  0
  4  5  1  0
  5  6  2  0
  6  7  1  0
  7  8  1  0
  8  9  1  0
  9 10  2  0
  9 11  1  0
 11 12  1  0
 12 13  1  0
 13 14  1  0
 14 15  1  0
  7 16  2  0
 16 17  1  0
  2 18  1  0
 18 19  2  0
 19 20  1  0
 20 21  2  0
 21 22  1  0
 22 23  2  0
 23 24  1  0
 17  4  2  0
 23 18  1  0
 15 11  1  0
  3 25  1  0
  5 26  1  0
  6 27  1  0
  8 28  1  0
  8 29  1  0
 12 30  1  0
 12 31  1  0
 13 32  1  0
 13 33  1  0
 14 34  1  0
 14 35  1  0
 15 36  1  0
 15 37  1  0
 16 38  1  0
 17 39  1  0
 19 40  1  0
 20 41  1  0
 21 42  1  0
 22 43  1  0
M  END
>  <meeko>  (1) 
{"is_sidechain": false}

>  <smiles>  (1) 
O=C(Nc1ccc(CC(=O)N2CCCC2)cc1)c1ccccc1F

>  <vina_score>  (1) 
-7.800

>  <job_id>  (1) 
fc9f0af531840bb0

$$$$
