
     RDKit          3D

 33 34  0  0  0  0  0  0  0  0999 V2000
   52.5600   76.2270   26.7320 C   0  0  0  0  0  0  0  0  0  0  0  0
   52.9280   77.5740   27.0140 O   0  0  0  0  0  0  0  0  0  0  0  0
   54.0580   77.7890   27.7650 C   0  0  0  0  0  0  0  0  0  0  0  0
   54.4020   76.9970   28.8700 C   0  0  0  0  0  0  0  0  0  0  0  0
   55.5610   77.2630   29.5940 C   0  0  0  0  0  0  0  0  0  0  0  0
   55.8680   76.4920   30.6450 F   0  0  0  0  0  0  0  0  0  0  0  0
   56.4000   78.3080   29.2470 C   0  0  0  0  0  0  0  0  0  0  0  0
   56.0710   79.1050   28.1510 C   0  0  0  0  0  0  0  0  0  0  0  0
   54.9040   78.8630   27.3950 C   0  0  0  0  0  0  0  0  0  0  0  0
   54.6660   79.7980   26.2340 C   0  0  0  0  0  0  0  0  0  0  0  0
   55.6260   80.4050   25.7720 O   0  0  0  0  0  0  0  0  0  0  0  0
   53.3670   79.8990   25.7760 N   0  0  0  0  0  0  0  0  0  0  0  0
   52.8730   80.6880   24.7190 C   0  0  0  0  0  0  0  0  0  0  0  0
   52.5590   80.0260   23.5240 C   0  0  0  0  0  0  0  0  0  0  0  0
   52.0620   80.7300   22.4220 C   0  0  0  0  0  0  0  0  0  0  0  0
   51.8720   82.1130   22.5040 C   0  0  0  0  0  0  0  0  0  0  0  0
   51.3490   82.9060   21.3660 C   0  0  0  0  0  0  0  0  0  0  0  0
   51.4440   84.1120   21.2300 O   0  0  0  0  0  0  0  0  0  0  0  0
   50.7260   82.1490   20.4450 O   0  0  0  0  0  0  0  0  0  0  0  0
   52.1840   82.7790   23.6930 C   0  0  0  0  0  0  0  0  0  0  0  0
   52.6810   82.0690   24.7940 C   0  0  0  0  0  0  0  0  0  0  0  0
   52.4112   75.6823   27.6760 H   0  0  0  0  0  0  0  0  0  0  0  0
   51.6259   76.2160   26.1511 H   0  0  0  0  0  0  0  0  0  0  0  0
   53.3587   75.7426   26.1511 H   0  0  0  0  0  0  0  0  0  0  0  0
   53.7521   76.1605   29.1665 H   0  0  0  0  0  0  0  0  0  0  0  0
   57.3130   78.5068   29.8274 H   0  0  0  0  0  0  0  0  0  0  0  0
   56.7331   79.9375   27.8706 H   0  0  0  0  0  0  0  0  0  0  0  0
   52.6840   79.3310   26.2650 H   0  0  0  0  0  0  0  0  0  0  0  0
   52.7054   78.9382   23.4518 H   0  0  0  0  0  0  0  0  0  0  0  0
   51.8207   80.1958   21.4912 H   0  0  0  0  0  0  0  0  0  0  0  0
   50.8150   82.6700   19.6190 H   0  0  0  0  0  0  0  0  0  0  0  0
   52.0384   83.8670   23.7646 H   0  0  0  0  0  0  0  0  0  0  0  0
   52.9218   82.6037   25.7246 H   0  0  0  0  0  0  0  0  0  0  0  0
  1  2  1  0
  2  3  1  0
  3  4  1  0
  4  5  2  0
  5  6  1  0
  5  7  1  0
  7  8  2  0
  8  9  1  0
  9 10  1  0
 10 11  2  0
 10 12  1  0
 12 13  1  0
 13 14  1  0
 14 15  2  0
 15 16  1  0
 16 17  1  0
 17 18  2  0
 17 19  1  0
 16 20  2  0
 20 21  1  0
  9  3  2  0
 21 13  2  0
  1 22  1  0
  1 23  1  0
  1 24  1  0
  4 25  1  0
  7 26  1  0
  8 27  1  0
 12 28  1  0
 14 29  1  0
 15 30  1  0
 19 31  1  0
 20 32  1  0
 21 33  1  0
M  END
>  <meeko>  (1) 
{"is_sidechain": false}

>  <smiles>  (1) 
COc1cc(F)ccc1C(=O)Nc1ccc(C(=O)O)cc1

>  <vina_score>  (1) 
-7.274

>  <job_id>  (1) 
fcae3709306c065d

$$$$
