
     RDKit          3D

 36 38  0  0  0  0  0  0  0  0999 V2000
   49.7900   81.3570   22.0200 N   0  0  0  0  0  0  0  0  0  0  0  0
   51.4340   81.6890   21.8790 S   0  0  0  0  0  0  0  0  0  0  0  0
   51.6180   83.1100   22.0500 O   0  0  0  0  0  0  0  0  0  0  0  0
   51.8740   80.9820   20.6980 O   0  0  0  0  0  0  0  0  0  0  0  0
   52.0840   80.8610   23.3060 C   0  0  0  0  0  0  0  0  0  0  0  0
   52.7890   79.6690   23.1450 C   0  0  0  0  0  0  0  0  0  0  0  0
   53.2980   79.0160   24.2720 C   0  0  0  0  0  0  0  0  0  0  0  0
   53.1090   79.5370   25.5610 C   0  0  0  0  0  0  0  0  0  0  0  0
   53.6110   78.8250   26.6630 N   0  0  0  0  0  0  0  0  0  0  0  0
   54.8180   78.9240   27.3770 C   0  0  0  0  0  0  0  0  0  0  0  0
   55.0970   78.1730   28.5190 C   0  0  0  0  0  0  0  0  0  0  0  0
   56.3010   78.3380   29.2200 C   0  0  0  0  0  0  0  0  0  0  0  0
   57.2730   79.2680   28.8170 C   0  0  0  0  0  0  0  0  0  0  0  0
   58.5880   79.4820   29.5430 C   0  0  0  0  0  0  0  0  0  0  0  0
   58.6750   80.3810   30.7540 C   0  0  0  0  0  0  0  0  0  0  0  0
   59.3220   80.7990   29.4640 C   0  0  0  0  0  0  0  0  0  0  0  0
   56.9750   80.0220   27.6710 C   0  0  0  0  0  0  0  0  0  0  0  0
   55.7740   79.8570   26.9660 C   0  0  0  0  0  0  0  0  0  0  0  0
   52.3820   80.7280   25.6950 C   0  0  0  0  0  0  0  0  0  0  0  0
   51.8680   81.3920   24.5770 C   0  0  0  0  0  0  0  0  0  0  0  0
   49.3420   81.8570   22.7870 H   0  0  0  0  0  0  0  0  0  0  0  0
   49.6630   80.3470   22.0990 H   0  0  0  0  0  0  0  0  0  0  0  0
   52.9434   79.2463   22.1413 H   0  0  0  0  0  0  0  0  0  0  0  0
   53.8567   78.0769   24.1457 H   0  0  0  0  0  0  0  0  0  0  0  0
   52.9600   78.1580   27.0610 H   0  0  0  0  0  0  0  0  0  0  0  0
   54.3601   77.4386   28.8761 H   0  0  0  0  0  0  0  0  0  0  0  0
   56.4891   77.7211   30.1111 H   0  0  0  0  0  0  0  0  0  0  0  0
   58.8433   78.4337   29.3290 H   0  0  0  0  0  0  0  0  0  0  0  0
   57.7780   80.9060   31.1144 H   0  0  0  0  0  0  0  0  0  0  0  0
   59.0193   80.2562   31.7912 H   0  0  0  0  0  0  0  0  0  0  0  0
   58.8984   81.6300   28.8809 H   0  0  0  0  0  0  0  0  0  0  0  0
   60.3356   81.1066   29.1675 H   0  0  0  0  0  0  0  0  0  0  0  0
   57.7050   80.7641   27.3155 H   0  0  0  0  0  0  0  0  0  0  0  0
   55.5812   80.4721   26.0747 H   0  0  0  0  0  0  0  0  0  0  0  0
   52.2129   81.1477   26.6976 H   0  0  0  0  0  0  0  0  0  0  0  0
   51.2983   82.3250   24.6991 H   0  0  0  0  0  0  0  0  0  0  0  0
  1  2  1  0
  2  3  2  0
  2  4  2  0
  2  5  1  0
  5  6  1  0
  6  7  2  0
  7  8  1  0
  8  9  1  0
  9 10  1  0
 10 11  1  0
 11 12  2  0
 12 13  1  0
 13 14  1  0
 14 15  1  0
 15 16  1  0
 13 17  2  0
 17 18  1  0
  8 19  2  0
 19 20  1  0
 20  5  2  0
 18 10  2  0
 16 14  1  0
  1 21  1  0
  1 22  1  0
  6 23  1  0
  7 24  1  0
  9 25  1  0
 11 26  1  0
 12 27  1  0
 14 28  1  0
 15 29  1  0
 15 30  1  0
 16 31  1  0
 16 32  1  0
 17 33  1  0
 18 34  1  0
 19 35  1  0
 20 36  1  0
M  END
>  <meeko>  (1) 
{"is_sidechain": false}

>  <smiles>  (1) 
NS(=O)(=O)c1ccc(Nc2ccc(C3CC3)cc2)cc1

>  <vina_score>  (1) 
-8.047

>  <job_id>  (1) 
fcb03aae798fc061

$$$$
