
     RDKit          3D

 52 53  0  0  0  0  0  0  0  0999 V2000
   52.9470   76.9790   27.6170 C   0  0  0  0  0  0  0  0  0  0  0  0
   53.6200   78.2380   27.3640 N   0  0  0  0  0  0  0  0  0  0  0  0
   54.5390   78.7350   28.3890 C   0  0  0  0  0  0  0  0  0  0  0  0
   55.9290   78.1010   28.2820 C   0  0  0  0  0  0  0  0  0  0  0  0
   56.9840   78.9600   28.9310 C   0  0  0  0  0  0  0  0  0  0  0  0
   57.0730   79.0430   30.3210 C   0  0  0  0  0  0  0  0  0  0  0  0
   58.0410   79.8570   30.9210 C   0  0  0  0  0  0  0  0  0  0  0  0
   58.9420   80.6240   30.1640 C   0  0  0  0  0  0  0  0  0  0  0  0
   59.9000   81.4180   30.8150 N   0  0  0  0  0  0  0  0  0  0  0  0
   59.8820   81.3050   32.2930 C   0  0  0  0  0  0  0  0  0  0  0  0
   61.1110   82.0100   32.9160 C   0  0  0  0  0  0  0  0  0  0  0  0
   61.2730   83.4150   32.4910 N   0  0  0  0  0  0  0  0  0  0  0  0
   61.3320   83.4430   31.0140 C   0  0  0  0  0  0  0  0  0  0  0  0
   60.0990   82.8010   30.3380 C   0  0  0  0  0  0  0  0  0  0  0  0
   58.8440   80.5160   28.7700 C   0  0  0  0  0  0  0  0  0  0  0  0
   57.8760   79.7050   28.1580 C   0  0  0  0  0  0  0  0  0  0  0  0
   53.1850   79.0360   26.3160 C   0  0  0  0  0  0  0  0  0  0  0  0
   52.9370   78.6120   25.1940 O   0  0  0  0  0  0  0  0  0  0  0  0
   53.0550   80.3360   26.6880 O   0  0  0  0  0  0  0  0  0  0  0  0
   53.7520   81.3950   25.9860 C   0  0  0  0  0  0  0  0  0  0  0  0
   53.6130   82.6210   26.9020 C   0  0  0  0  0  0  0  0  0  0  0  0
   55.2410   81.0710   25.8240 C   0  0  0  0  0  0  0  0  0  0  0  0
   53.0820   81.7100   24.6440 C   0  0  0  0  0  0  0  0  0  0  0  0
   52.8621   76.8202   28.7022 H   0  0  0  0  0  0  0  0  0  0  0  0
   51.9421   77.0042   27.1704 H   0  0  0  0  0  0  0  0  0  0  0  0
   53.5262   76.1574   27.1704 H   0  0  0  0  0  0  0  0  0  0  0  0
   54.6379   79.8248   28.2767 H   0  0  0  0  0  0  0  0  0  0  0  0
   54.1227   78.4679   29.3715 H   0  0  0  0  0  0  0  0  0  0  0  0
   55.9127   77.1198   28.7789 H   0  0  0  0  0  0  0  0  0  0  0  0
   56.1783   77.9982   27.2156 H   0  0  0  0  0  0  0  0  0  0  0  0
   56.3786   78.4655   30.9489 H   0  0  0  0  0  0  0  0  0  0  0  0
   58.0978   79.8972   32.0188 H   0  0  0  0  0  0  0  0  0  0  0  0
   58.9644   81.7731   32.6788 H   0  0  0  0  0  0  0  0  0  0  0  0
   59.9132   80.2394   32.5643 H   0  0  0  0  0  0  0  0  0  0  0  0
   61.0044   81.9892   34.0106 H   0  0  0  0  0  0  0  0  0  0  0  0
   62.0018   81.4662   32.5684 H   0  0  0  0  0  0  0  0  0  0  0  0
   60.4420   83.9300   32.7820 H   0  0  0  0  0  0  0  0  0  0  0  0
   61.4023   84.4911   30.6877 H   0  0  0  0  0  0  0  0  0  0  0  0
   62.2108   82.8539   30.7129 H   0  0  0  0  0  0  0  0  0  0  0  0
   59.2057   83.3969   30.5769 H   0  0  0  0  0  0  0  0  0  0  0  0
   60.2649   82.7784   29.2508 H   0  0  0  0  0  0  0  0  0  0  0  0
   59.5447   81.0822   28.1387 H   0  0  0  0  0  0  0  0  0  0  0  0
   57.8198   79.6560   27.0605 H   0  0  0  0  0  0  0  0  0  0  0  0
   53.6495   82.2993   27.9533 H   0  0  0  0  0  0  0  0  0  0  0  0
   54.4374   83.3218   26.7042 H   0  0  0  0  0  0  0  0  0  0  0  0
   52.6526   83.1195   26.7042 H   0  0  0  0  0  0  0  0  0  0  0  0
   55.7044   80.9702   26.8165 H   0  0  0  0  0  0  0  0  0  0  0  0
   55.3528   80.1275   25.2696 H   0  0  0  0  0  0  0  0  0  0  0  0
   55.7347   81.8827   25.2696 H   0  0  0  0  0  0  0  0  0  0  0  0
   52.0999   82.1717   24.8239 H   0  0  0  0  0  0  0  0  0  0  0  0
   53.7147   82.4050   24.0725 H   0  0  0  0  0  0  0  0  0  0  0  0
   52.9505   80.7794   24.0725 H   0  0  0  0  0  0  0  0  0  0  0  0
  1  2  1  0
  2  3  1  0
  3  4  1  0
  4  5  1  0
  5  6  1  0
  6  7  2  0
  7  8  1  0
  8  9  1  0
  9 10  1  0
 10 11  1  0
 11 12  1  0
 12 13  1  0
 13 14  1  0
  8 15  2  0
 15 16  1  0
  2 17  1  0
 17 18  2  0
 17 19  1  0
 19 20  1  0
 20 21  1  0
 20 22  1  0
 20 23  1  0
 16  5  2  0
 14  9  1  0
  1 24  1  0
  1 25  1  0
  1 26  1  0
  3 27  1  0
  3 28  1  0
  4 29  1  0
  4 30  1  0
  6 31  1  0
  7 32  1  0
 10 33  1  0
 10 34  1  0
 11 35  1  0
 11 36  1  0
 12 37  1  0
 13 38  1  0
 13 39  1  0
 14 40  1  0
 14 41  1  0
 15 42  1  0
 16 43  1  0
 21 44  1  0
 21 45  1  0
 21 46  1  0
 22 47  1  0
 22 48  1  0
 22 49  1  0
 23 50  1  0
 23 51  1  0
 23 52  1  0
M  END
>  <meeko>  (1) 
{"is_sidechain": false}

>  <smiles>  (1) 
CN(CCc1ccc(N2CCNCC2)cc1)C(=O)OC(C)(C)C

>  <vina_score>  (1) 
-7.011

>  <job_id>  (1) 
fdb9ea2d3c3fb7cb

$$$$
