
     RDKit          3D

 54 56  0  0  0  0  0  0  0  0999 V2000
   64.3000   84.6350   30.4730 C   0  0  0  0  0  0  0  0  0  0  0  0
   64.7290   83.2470   30.2790 N   0  0  0  0  0  0  0  0  0  0  0  0
   66.1410   83.1170   30.6570 C   0  0  0  0  0  0  0  0  0  0  0  0
   63.9150   82.3040   31.0680 C   0  0  0  0  0  0  0  0  0  0  0  0
   63.1800   83.0020   32.2210 C   0  0  0  0  0  0  0  0  0  0  0  0
   61.8830   82.3040   32.6180 C   0  0  0  0  0  0  0  0  0  0  0  0
   60.4270   83.1140   31.9840 S   0  0  0  0  0  0  0  0  0  0  0  0
   59.5370   83.4050   33.0920 O   0  0  0  0  0  0  0  0  0  0  0  0
   60.8460   84.1620   31.0710 O   0  0  0  0  0  0  0  0  0  0  0  0
   59.6530   81.8420   31.0150 C   0  0  0  0  0  0  0  0  0  0  0  0
   58.8260   80.9030   31.6280 C   0  0  0  0  0  0  0  0  0  0  0  0
   58.2290   79.9060   30.8500 C   0  0  0  0  0  0  0  0  0  0  0  0
   58.4450   79.8260   29.4630 C   0  0  0  0  0  0  0  0  0  0  0  0
   57.8380   78.7860   28.7520 N   0  0  0  0  0  0  0  0  0  0  0  0
   56.5470   78.2660   28.7150 C   0  0  0  0  0  0  0  0  0  0  0  0
   56.3310   77.2340   29.5450 N   0  0  0  0  0  0  0  0  0  0  0  0
   55.1050   76.6890   29.5320 C   0  0  0  0  0  0  0  0  0  0  0  0
   54.0880   77.1390   28.7300 C   0  0  0  0  0  0  0  0  0  0  0  0
   54.3850   78.2050   27.9050 C   0  0  0  0  0  0  0  0  0  0  0  0
   53.3590   78.6840   27.0530 N   0  0  0  0  0  0  0  0  0  0  0  0
   53.2350   79.9660   26.4740 C   0  0  0  0  0  0  0  0  0  0  0  0
   53.1380   80.0790   25.0770 C   0  0  0  0  0  0  0  0  0  0  0  0
   53.0630   81.3310   24.4600 C   0  0  0  0  0  0  0  0  0  0  0  0
   53.1070   82.4800   25.2370 C   0  0  0  0  0  0  0  0  0  0  0  0
   53.0370   83.6800   24.6450 F   0  0  0  0  0  0  0  0  0  0  0  0
   53.2370   82.4010   26.6150 C   0  0  0  0  0  0  0  0  0  0  0  0
   53.3140   81.1460   27.2280 C   0  0  0  0  0  0  0  0  0  0  0  0
   55.6070   78.7600   27.8990 N   0  0  0  0  0  0  0  0  0  0  0  0
   59.2950   80.7740   28.8810 C   0  0  0  0  0  0  0  0  0  0  0  0
   59.9030   81.7770   29.6460 C   0  0  0  0  0  0  0  0  0  0  0  0
   64.2332   84.8511   31.5495 H   0  0  0  0  0  0  0  0  0  0  0  0
   65.0305   85.3130   30.0075 H   0  0  0  0  0  0  0  0  0  0  0  0
   63.3143   84.7826   30.0075 H   0  0  0  0  0  0  0  0  0  0  0  0
   66.2278   83.1090   31.7535 H   0  0  0  0  0  0  0  0  0  0  0  0
   66.5445   82.1779   30.2504 H   0  0  0  0  0  0  0  0  0  0  0  0
   66.7092   83.9666   30.2504 H   0  0  0  0  0  0  0  0  0  0  0  0
   63.1722   81.8358   30.4054 H   0  0  0  0  0  0  0  0  0  0  0  0
   64.5913   81.5529   31.5021 H   0  0  0  0  0  0  0  0  0  0  0  0
   63.8459   83.0261   33.0962 H   0  0  0  0  0  0  0  0  0  0  0  0
   62.9147   84.0120   31.8752 H   0  0  0  0  0  0  0  0  0  0  0  0
   61.9071   81.2748   32.2306 H   0  0  0  0  0  0  0  0  0  0  0  0
   61.8201   82.3309   33.7159 H   0  0  0  0  0  0  0  0  0  0  0  0
   58.6447   80.9454   32.7121 H   0  0  0  0  0  0  0  0  0  0  0  0
   57.5747   79.1666   31.3349 H   0  0  0  0  0  0  0  0  0  0  0  0
   58.4260   78.2370   28.1420 H   0  0  0  0  0  0  0  0  0  0  0  0
   54.9055   75.8374   30.1991 H   0  0  0  0  0  0  0  0  0  0  0  0
   53.0903   76.6760   28.7433 H   0  0  0  0  0  0  0  0  0  0  0  0
   52.4630   78.3170   27.3590 H   0  0  0  0  0  0  0  0  0  0  0  0
   53.1208   79.1688   24.4596 H   0  0  0  0  0  0  0  0  0  0  0  0
   52.9698   81.4050   23.3665 H   0  0  0  0  0  0  0  0  0  0  0  0
   53.2793   83.3178   27.2214 H   0  0  0  0  0  0  0  0  0  0  0  0
   53.4385   81.0835   28.3191 H   0  0  0  0  0  0  0  0  0  0  0  0
   59.4895   80.7300   27.7992 H   0  0  0  0  0  0  0  0  0  0  0  0
   60.5729   82.5080   29.1696 H   0  0  0  0  0  0  0  0  0  0  0  0
  1  2  1  0
  2  3  1  0
  2  4  1  0
  4  5  1  0
  5  6  1  0
  6  7  1  0
  7  8  2  0
  7  9  2  0
  7 10  1  0
 10 11  1  0
 11 12  2  0
 12 13  1  0
 13 14  1  0
 14 15  1  0
 15 16  2  0
 16 17  1  0
 17 18  2  0
 18 19  1  0
 19 20  1  0
 20 21  1  0
 21 22  1  0
 22 23  2  0
 23 24  1  0
 24 25  1  0
 24 26  2  0
 26 27  1  0
 19 28  2  0
 13 29  2  0
 29 30  1  0
 30 10  2  0
 28 15  1  0
 27 21  2  0
  1 31  1  0
  1 32  1  0
  1 33  1  0
  3 34  1  0
  3 35  1  0
  3 36  1  0
  4 37  1  0
  4 38  1  0
  5 39  1  0
  5 40  1  0
  6 41  1  0
  6 42  1  0
 11 43  1  0
 12 44  1  0
 14 45  1  0
 17 46  1  0
 18 47  1  0
 20 48  1  0
 22 49  1  0
 23 50  1  0
 26 51  1  0
 27 52  1  0
 29 53  1  0
 30 54  1  0
M  END
>  <meeko>  (1) 
{"is_sidechain": false}

>  <smiles>  (1) 
CN(C)CCCS(=O)(=O)c1ccc(Nc2nccc(Nc3ccc(F)cc3)n2)cc1

>  <vina_score>  (1) 
-8.108

>  <job_id>  (1) 
fdc4007886ab7437

$$$$
