
     RDKit          3D

 39 40  0  0  0  0  0  0  0  0999 V2000
   59.1810   80.2320   31.6150 C   0  0  0  0  0  0  0  0  0  0  0  0
   58.7890   80.6200   30.1880 C   0  0  0  0  0  0  0  0  0  0  0  0
   59.9430   81.3570   29.5100 C   0  0  0  0  0  0  0  0  0  0  0  0
   58.4620   79.3950   29.4570 N   0  0  0  0  0  0  0  0  0  0  0  0
   57.2630   79.2300   28.7660 C   0  0  0  0  0  0  0  0  0  0  0  0
   56.8940   79.9830   27.6450 C   0  0  0  0  0  0  0  0  0  0  0  0
   55.6440   79.8200   27.0380 C   0  0  0  0  0  0  0  0  0  0  0  0
   54.7230   78.9240   27.5740 C   0  0  0  0  0  0  0  0  0  0  0  0
   53.4920   78.7020   27.0030 O   0  0  0  0  0  0  0  0  0  0  0  0
   53.1460   79.4870   25.9260 C   0  0  0  0  0  0  0  0  0  0  0  0
   52.5850   80.7610   26.0610 C   0  0  0  0  0  0  0  0  0  0  0  0
   52.2200   81.4850   24.9240 C   0  0  0  0  0  0  0  0  0  0  0  0
   52.4150   80.9220   23.6580 C   0  0  0  0  0  0  0  0  0  0  0  0
   51.9400   81.8440   22.2200 S   0  0  0  0  0  0  0  0  0  0  0  0
   50.3400   81.3570   22.0230 N   0  0  0  0  0  0  0  0  0  0  0  0
   51.8770   83.2440   22.5710 O   0  0  0  0  0  0  0  0  0  0  0  0
   52.6980   81.3570   21.0930 O   0  0  0  0  0  0  0  0  0  0  0  0
   52.9470   79.6360   23.5200 C   0  0  0  0  0  0  0  0  0  0  0  0
   53.3090   78.9190   24.6600 C   0  0  0  0  0  0  0  0  0  0  0  0
   55.0580   78.1710   28.6940 C   0  0  0  0  0  0  0  0  0  0  0  0
   56.3090   78.3420   29.2930 C   0  0  0  0  0  0  0  0  0  0  0  0
   58.5874   80.8195   32.3309 H   0  0  0  0  0  0  0  0  0  0  0  0
   58.9869   79.1604   31.7701 H   0  0  0  0  0  0  0  0  0  0  0  0
   60.2505   80.4371   31.7701 H   0  0  0  0  0  0  0  0  0  0  0  0
   57.9183   81.2921   30.1996 H   0  0  0  0  0  0  0  0  0  0  0  0
   60.6078   81.7816   30.2767 H   0  0  0  0  0  0  0  0  0  0  0  0
   60.5094   80.6531   28.8826 H   0  0  0  0  0  0  0  0  0  0  0  0
   59.5426   82.1670   28.8826 H   0  0  0  0  0  0  0  0  0  0  0  0
   59.2550   79.0110   28.9490 H   0  0  0  0  0  0  0  0  0  0  0  0
   57.6013   80.7178   27.2330 H   0  0  0  0  0  0  0  0  0  0  0  0
   55.3892   80.3992   26.1382 H   0  0  0  0  0  0  0  0  0  0  0  0
   52.4315   81.1921   27.0613 H   0  0  0  0  0  0  0  0  0  0  0  0
   51.7828   82.4895   25.0229 H   0  0  0  0  0  0  0  0  0  0  0  0
   49.9940   80.7850   22.7930 H   0  0  0  0  0  0  0  0  0  0  0  0
   49.7610   82.1850   21.8710 H   0  0  0  0  0  0  0  0  0  0  0  0
   53.0787   79.1941   22.5213 H   0  0  0  0  0  0  0  0  0  0  0  0
   53.7235   77.9048   24.5623 H   0  0  0  0  0  0  0  0  0  0  0  0
   54.3422   77.4446   29.1063 H   0  0  0  0  0  0  0  0  0  0  0  0
   56.5532   77.7678   30.1989 H   0  0  0  0  0  0  0  0  0  0  0  0
  1  2  1  0
  2  3  1  0
  2  4  1  0
  4  5  1  0
  5  6  1  0
  6  7  2  0
  7  8  1  0
  8  9  1  0
  9 10  1  0
 10 11  1  0
 11 12  2  0
 12 13  1  0
 13 14  1  0
 14 15  1  0
 14 16  2  0
 14 17  2  0
 13 18  2  0
 18 19  1  0
  8 20  2  0
 20 21  1  0
 21  5  2  0
 19 10  2  0
  1 22  1  0
  1 23  1  0
  1 24  1  0
  2 25  1  0
  3 26  1  0
  3 27  1  0
  3 28  1  0
  4 29  1  0
  6 30  1  0
  7 31  1  0
 11 32  1  0
 12 33  1  0
 15 34  1  0
 15 35  1  0
 18 36  1  0
 19 37  1  0
 20 38  1  0
 21 39  1  0
M  END
>  <meeko>  (1) 
{"is_sidechain": false}

>  <smiles>  (1) 
CC(C)Nc1ccc(Oc2ccc(S(N)(=O)=O)cc2)cc1

>  <vina_score>  (1) 
-7.994

>  <job_id>  (1) 
fdcd56e461c9b12e

$$$$
