
     RDKit          3D

 48 50  0  0  0  0  0  0  0  0999 V2000
   55.8520   82.3770   26.2800 C   0  0  0  0  0  0  0  0  0  0  0  0
   55.6330   80.8810   26.1460 C   0  0  0  0  0  0  0  0  0  0  0  0
   56.3690   80.1750   27.1420 O   0  0  0  0  0  0  0  0  0  0  0  0
   55.7600   79.1330   27.8020 C   0  0  0  0  0  0  0  0  0  0  0  0
   54.4340   78.7290   27.6210 C   0  0  0  0  0  0  0  0  0  0  0  0
   53.9180   77.6620   28.3610 C   0  0  0  0  0  0  0  0  0  0  0  0
   54.7150   77.0050   29.2910 C   0  0  0  0  0  0  0  0  0  0  0  0
   56.0370   77.4060   29.4840 C   0  0  0  0  0  0  0  0  0  0  0  0
   56.5800   78.4620   28.7400 C   0  0  0  0  0  0  0  0  0  0  0  0
   57.9150   78.8950   28.9180 N   0  0  0  0  0  0  0  0  0  0  0  0
   58.4640   79.9160   29.7150 C   0  0  0  0  0  0  0  0  0  0  0  0
   59.3720   80.8010   29.1270 C   0  0  0  0  0  0  0  0  0  0  0  0
   59.9270   81.8580   29.8560 C   0  0  0  0  0  0  0  0  0  0  0  0
   59.5940   82.0670   31.2010 C   0  0  0  0  0  0  0  0  0  0  0  0
   60.1160   83.1360   31.9410 N   0  0  0  0  0  0  0  0  0  0  0  0
   59.7340   84.4640   31.4330 C   0  0  0  0  0  0  0  0  0  0  0  0
   59.8080   85.5930   32.5130 C   0  0  0  0  0  0  0  0  0  0  0  0
   60.0670   85.1480   33.8470 O   0  0  0  0  0  0  0  0  0  0  0  0
   61.3870   84.6680   34.0520 C   0  0  0  0  0  0  0  0  0  0  0  0
   61.5790   83.2850   33.7920 O   0  0  0  0  0  0  0  0  0  0  0  0
   61.4970   82.9900   32.4020 C   0  0  0  0  0  0  0  0  0  0  0  0
   58.6780   81.1820   31.8030 C   0  0  0  0  0  0  0  0  0  0  0  0
   58.2800   81.3460   33.2460 C   0  0  0  0  0  0  0  0  0  0  0  0
   58.1220   80.1260   31.0540 C   0  0  0  0  0  0  0  0  0  0  0  0
   55.8916   82.6478   27.3454 H   0  0  0  0  0  0  0  0  0  0  0  0
   56.8002   82.6536   25.7958 H   0  0  0  0  0  0  0  0  0  0  0  0
   55.0229   82.9138   25.7958 H   0  0  0  0  0  0  0  0  0  0  0  0
   54.5618   80.6605   26.2638 H   0  0  0  0  0  0  0  0  0  0  0  0
   55.9808   80.5592   25.1533 H   0  0  0  0  0  0  0  0  0  0  0  0
   53.7953   79.2524   26.8943 H   0  0  0  0  0  0  0  0  0  0  0  0
   52.8773   77.3408   28.2070 H   0  0  0  0  0  0  0  0  0  0  0  0
   54.3032   76.1687   29.8749 H   0  0  0  0  0  0  0  0  0  0  0  0
   56.6598   76.8878   30.2281 H   0  0  0  0  0  0  0  0  0  0  0  0
   58.5590   78.1170   28.7840 H   0  0  0  0  0  0  0  0  0  0  0  0
   59.6550   80.6640   28.0729 H   0  0  0  0  0  0  0  0  0  0  0  0
   60.6382   82.5379   29.3642 H   0  0  0  0  0  0  0  0  0  0  0  0
   60.4107   84.7281   30.6070 H   0  0  0  0  0  0  0  0  0  0  0  0
   58.6850   84.3958   31.1092 H   0  0  0  0  0  0  0  0  0  0  0  0
   60.6113   86.2869   32.2245 H   0  0  0  0  0  0  0  0  0  0  0  0
   58.8110   86.0571   32.5359 H   0  0  0  0  0  0  0  0  0  0  0  0
   62.0605   85.2342   33.3918 H   0  0  0  0  0  0  0  0  0  0  0  0
   61.5976   84.8075   35.1226 H   0  0  0  0  0  0  0  0  0  0  0  0
   62.1429   83.6835   31.8435 H   0  0  0  0  0  0  0  0  0  0  0  0
   61.8273   81.9546   32.2321 H   0  0  0  0  0  0  0  0  0  0  0  0
   59.1019   81.0073   33.8938 H   0  0  0  0  0  0  0  0  0  0  0  0
   58.0658   82.4057   33.4491 H   0  0  0  0  0  0  0  0  0  0  0  0
   57.3815   80.7448   33.4491 H   0  0  0  0  0  0  0  0  0  0  0  0
   57.4003   79.4495   31.5353 H   0  0  0  0  0  0  0  0  0  0  0  0
  1  2  1  0
  2  3  1  0
  3  4  1  0
  4  5  2  0
  5  6  1  0
  6  7  2  0
  7  8  1  0
  8  9  2  0
  9 10  1  0
 10 11  1  0
 11 12  1  0
 12 13  2  0
 13 14  1  0
 14 15  1  0
 15 16  1  0
 16 17  1  0
 17 18  1  0
 18 19  1  0
 19 20  1  0
 20 21  1  0
 14 22  2  0
 22 23  1  0
 22 24  1  0
  9  4  1  0
 24 11  2  0
 21 15  1  0
  1 25  1  0
  1 26  1  0
  1 27  1  0
  2 28  1  0
  2 29  1  0
  5 30  1  0
  6 31  1  0
  7 32  1  0
  8 33  1  0
 10 34  1  0
 12 35  1  0
 13 36  1  0
 16 37  1  0
 16 38  1  0
 17 39  1  0
 17 40  1  0
 19 41  1  0
 19 42  1  0
 21 43  1  0
 21 44  1  0
 23 45  1  0
 23 46  1  0
 23 47  1  0
 24 48  1  0
M  END
>  <meeko>  (1) 
{"is_sidechain": false}

>  <smiles>  (1) 
CCOc1ccccc1Nc1ccc(N2CCOCOC2)c(C)c1

>  <vina_score>  (1) 
-6.219

>  <job_id>  (1) 
fdcdc9241417350e

$$$$
