
     RDKit          3D

 43 45  0  0  0  0  0  0  0  0999 V2000
   52.4360   81.7280   21.7700 C   0  0  0  0  0  0  0  0  0  0  0  0
   53.3100   81.3580   22.9610 C   0  0  0  0  0  0  0  0  0  0  0  0
   52.5730   80.5250   24.0270 C   0  0  0  0  0  0  0  0  0  0  0  0
   52.9290   79.0310   23.8940 C   0  0  0  0  0  0  0  0  0  0  0  0
   53.9180   78.5720   24.9660 C   0  0  0  0  0  0  0  0  0  0  0  0
   53.3230   78.7670   26.2900 N   0  0  0  0  0  0  0  0  0  0  0  0
   54.0450   78.2280   27.3560 C   0  0  0  0  0  0  0  0  0  0  0  0
   53.6600   77.0240   27.9430 C   0  0  0  0  0  0  0  0  0  0  0  0
   54.3990   76.4950   28.9960 C   0  0  0  0  0  0  0  0  0  0  0  0
   55.5260   77.1720   29.4390 C   0  0  0  0  0  0  0  0  0  0  0  0
   55.8870   78.3570   28.8080 C   0  0  0  0  0  0  0  0  0  0  0  0
   57.0720   79.1490   29.2010 C   0  0  0  0  0  0  0  0  0  0  0  0
   57.4390   79.2650   30.5560 C   0  0  0  0  0  0  0  0  0  0  0  0
   58.5590   80.0030   30.9480 C   0  0  0  0  0  0  0  0  0  0  0  0
   59.3270   80.6470   29.9900 C   0  0  0  0  0  0  0  0  0  0  0  0
   60.4100   81.3590   30.4130 O   0  0  0  0  0  0  0  0  0  0  0  0
   58.9940   80.5650   28.6440 C   0  0  0  0  0  0  0  0  0  0  0  0
   57.8710   79.8220   28.2560 C   0  0  0  0  0  0  0  0  0  0  0  0
   55.1540   78.8700   27.7850 N   0  0  0  0  0  0  0  0  0  0  0  0
   52.5550   79.9930   26.5210 C   0  0  0  0  0  0  0  0  0  0  0  0
   52.8500   81.0440   25.4490 C   0  0  0  0  0  0  0  0  0  0  0  0
   51.4787   82.1333   22.1296 H   0  0  0  0  0  0  0  0  0  0  0  0
   52.9491   82.4861   21.1601 H   0  0  0  0  0  0  0  0  0  0  0  0
   52.2489   80.8319   21.1601 H   0  0  0  0  0  0  0  0  0  0  0  0
   54.1684   80.7753   22.5956 H   0  0  0  0  0  0  0  0  0  0  0  0
   53.6190   82.2983   23.4409 H   0  0  0  0  0  0  0  0  0  0  0  0
   51.4930   80.6357   23.8499 H   0  0  0  0  0  0  0  0  0  0  0  0
   52.0070   78.4382   23.9863 H   0  0  0  0  0  0  0  0  0  0  0  0
   53.4045   78.8846   22.9129 H   0  0  0  0  0  0  0  0  0  0  0  0
   54.1491   77.5064   24.8205 H   0  0  0  0  0  0  0  0  0  0  0  0
   54.8443   79.1602   24.8884 H   0  0  0  0  0  0  0  0  0  0  0  0
   52.7712   76.4917   27.5733 H   0  0  0  0  0  0  0  0  0  0  0  0
   54.0936   75.5514   29.4717 H   0  0  0  0  0  0  0  0  0  0  0  0
   56.1233   76.7782   30.2746 H   0  0  0  0  0  0  0  0  0  0  0  0
   56.8303   78.7634   31.3227 H   0  0  0  0  0  0  0  0  0  0  0  0
   58.8301   80.0727   32.0118 H   0  0  0  0  0  0  0  0  0  0  0  0
   61.2050   80.8160   30.2910 H   0  0  0  0  0  0  0  0  0  0  0  0
   59.6068   81.0791   27.8888 H   0  0  0  0  0  0  0  0  0  0  0  0
   57.6075   79.7630   27.1897 H   0  0  0  0  0  0  0  0  0  0  0  0
   51.4818   79.7526   26.5014 H   0  0  0  0  0  0  0  0  0  0  0  0
   52.8438   80.4045   27.4994 H   0  0  0  0  0  0  0  0  0  0  0  0
   52.2166   81.9242   25.6335 H   0  0  0  0  0  0  0  0  0  0  0  0
   53.9188   81.2964   25.5117 H   0  0  0  0  0  0  0  0  0  0  0  0
  1  2  1  0
  2  3  1  0
  3  4  1  0
  4  5  1  0
  5  6  1  0
  6  7  1  0
  7  8  2  0
  8  9  1  0
  9 10  2  0
 10 11  1  0
 11 12  1  0
 12 13  1  0
 13 14  2  0
 14 15  1  0
 15 16  1  0
 15 17  2  0
 17 18  1  0
 11 19  2  0
  6 20  1  0
 20 21  1  0
 21  3  1  0
 19  7  1  0
 18 12  2  0
  1 22  1  0
  1 23  1  0
  1 24  1  0
  2 25  1  0
  2 26  1  0
  3 27  1  0
  4 28  1  0
  4 29  1  0
  5 30  1  0
  5 31  1  0
  8 32  1  0
  9 33  1  0
 10 34  1  0
 13 35  1  0
 14 36  1  0
 16 37  1  0
 17 38  1  0
 18 39  1  0
 20 40  1  0
 20 41  1  0
 21 42  1  0
 21 43  1  0
M  END
>  <meeko>  (1) 
{"is_sidechain": false}

>  <smiles>  (1) 
CCC1CCN(c2cccc(-c3ccc(O)cc3)n2)CC1

>  <vina_score>  (1) 
-8.171

>  <job_id>  (1) 
fe42747246976e9b

$$$$
