
     RDKit          3D

 49 51  0  0  0  0  0  0  0  0999 V2000
   66.8100   80.3020   30.1160 C   0  0  0  0  0  0  0  0  0  0  0  0
   66.3140   81.6290   30.2290 O   0  0  0  0  0  0  0  0  0  0  0  0
   65.2210   81.7350   31.1630 C   0  0  0  0  0  0  0  0  0  0  0  0
   65.0020   83.3020   32.0320 S   0  0  0  0  0  0  0  0  0  0  0  0
   65.9390   83.3190   33.2600 N   0  0  0  0  0  0  0  0  0  0  0  0
   64.9960   84.3610   31.0380 O   0  0  0  0  0  0  0  0  0  0  0  0
   63.3500   83.1960   32.6960 C   0  0  0  0  0  0  0  0  0  0  0  0
   63.0480   83.8590   33.8870 C   0  0  0  0  0  0  0  0  0  0  0  0
   61.7610   83.7930   34.4290 C   0  0  0  0  0  0  0  0  0  0  0  0
   60.8010   83.0470   33.7350 C   0  0  0  0  0  0  0  0  0  0  0  0
   59.4760   82.8120   34.0320 N   0  0  0  0  0  0  0  0  0  0  0  0
   58.8980   82.0260   33.0720 C   0  0  0  0  0  0  0  0  0  0  0  0
   57.6190   81.6900   33.1800 O   0  0  0  0  0  0  0  0  0  0  0  0
   59.8710   81.7450   32.1350 C   0  0  0  0  0  0  0  0  0  0  0  0
   59.7680   80.9780   30.9630 N   0  0  0  0  0  0  0  0  0  0  0  0
   58.8460   80.1430   30.9850 N   0  0  0  0  0  0  0  0  0  0  0  0
   58.8320   79.4690   29.8260 N   0  0  0  0  0  0  0  0  0  0  0  0
   57.9070   79.7660   28.9010 N   0  0  0  0  0  0  0  0  0  0  0  0
   57.0630   78.8500   28.8670 N   0  0  0  0  0  0  0  0  0  0  0  0
   56.0860   79.1380   27.8980 C   0  0  0  0  0  0  0  0  0  0  0  0
   56.3060   80.1560   26.9610 C   0  0  0  0  0  0  0  0  0  0  0  0
   55.3320   80.4700   26.0110 C   0  0  0  0  0  0  0  0  0  0  0  0
   54.1220   79.7690   26.0090 C   0  0  0  0  0  0  0  0  0  0  0  0
   52.8970   80.1410   24.7870 S   0  0  0  0  0  0  0  0  0  0  0  0
   53.6870   81.2840   23.8440 N   0  0  0  0  0  0  0  0  0  0  0  0
   51.7960   80.8340   25.4140 O   0  0  0  0  0  0  0  0  0  0  0  0
   52.7070   78.9880   23.9380 O   0  0  0  0  0  0  0  0  0  0  0  0
   53.8880   78.7500   26.9350 C   0  0  0  0  0  0  0  0  0  0  0  0
   54.8680   78.4440   27.8820 C   0  0  0  0  0  0  0  0  0  0  0  0
   61.0780   82.3800   32.5370 C   0  0  0  0  0  0  0  0  0  0  0  0
   62.3790   82.4580   32.0020 C   0  0  0  0  0  0  0  0  0  0  0  0
   66.9668   79.8824   31.1207 H   0  0  0  0  0  0  0  0  0  0  0  0
   66.0822   79.6838   29.5699 H   0  0  0  0  0  0  0  0  0  0  0  0
   67.7648   80.3127   29.5699 H   0  0  0  0  0  0  0  0  0  0  0  0
   64.2935   81.5370   30.6058 H   0  0  0  0  0  0  0  0  0  0  0  0
   65.4639   81.0116   31.9553 H   0  0  0  0  0  0  0  0  0  0  0  0
   65.7970   84.1740   33.8030 H   0  0  0  0  0  0  0  0  0  0  0  0
   63.8285   84.4376   34.4028 H   0  0  0  0  0  0  0  0  0  0  0  0
   61.5115   84.3091   35.3678 H   0  0  0  0  0  0  0  0  0  0  0  0
   58.9850   83.1650   34.8400 H   0  0  0  0  0  0  0  0  0  0  0  0
   57.6060   80.7880   33.5590 H   0  0  0  0  0  0  0  0  0  0  0  0
   59.2090   78.5290   29.8240 H   0  0  0  0  0  0  0  0  0  0  0  0
   57.2545   80.7129   26.9738 H   0  0  0  0  0  0  0  0  0  0  0  0
   55.5150   81.2623   25.2702 H   0  0  0  0  0  0  0  0  0  0  0  0
   53.5690   81.0570   22.8560 H   0  0  0  0  0  0  0  0  0  0  0  0
   53.3620   82.2200   24.0910 H   0  0  0  0  0  0  0  0  0  0  0  0
   52.9396   78.1930   26.9186 H   0  0  0  0  0  0  0  0  0  0  0  0
   54.6825   77.6514   28.6219 H   0  0  0  0  0  0  0  0  0  0  0  0
   62.6287   81.9503   31.0587 H   0  0  0  0  0  0  0  0  0  0  0  0
  1  2  1  0
  2  3  1  0
  3  4  1  0
  4  5  2  0
  4  6  2  0
  4  7  1  0
  7  8  2  0
  8  9  1  0
  9 10  2  0
 10 11  1  0
 11 12  1  0
 12 13  1  0
 12 14  2  0
 14 15  1  0
 15 16  2  3
 16 17  1  0
 17 18  1  0
 18 19  2  3
 19 20  1  0
 20 21  1  0
 21 22  2  0
 22 23  1  0
 23 24  1  0
 24 25  1  0
 24 26  2  0
 24 27  2  0
 23 28  2  0
 28 29  1  0
 14 30  1  0
 30 31  2  0
 31  7  1  0
 30 10  1  0
 29 20  2  0
  1 32  1  0
  1 33  1  0
  1 34  1  0
  3 35  1  0
  3 36  1  0
  5 37  1  0
  8 38  1  0
  9 39  1  0
 11 40  1  0
 13 41  1  0
 17 42  1  0
 21 43  1  0
 22 44  1  0
 25 45  1  0
 25 46  1  0
 28 47  1  0
 29 48  1  0
 31 49  1  0
M  END
>  <meeko>  (1) 
{"is_sidechain": false}

>  <smiles>  (1) 
COCS(=N)(=O)c1ccc2[nH]c(O)c(N=NNN=Nc3ccc(S(N)(=O)=O)cc3)c2c1

>  <vina_score>  (1) 
-8.043

>  <job_id>  (1) 
fe54ca333d5d2d18

$$$$
