
     RDKit          3D

 44 45  0  0  0  0  0  0  0  0999 V2000
   52.8660   81.6550   24.2380 C   0  0  0  0  0  0  0  0  0  0  0  0
   53.3220   80.4130   24.9150 C   0  0  0  0  0  0  0  0  0  0  0  0
   53.1460   79.2010   24.4360 N   0  0  0  0  0  0  0  0  0  0  0  0
   53.6850   78.3560   25.3590 C   0  0  0  0  0  0  0  0  0  0  0  0
   54.1990   79.0420   26.4440 C   0  0  0  0  0  0  0  0  0  0  0  0
   54.8260   78.4900   27.6360 C   0  0  0  0  0  0  0  0  0  0  0  0
   56.0360   79.0120   27.9320 N   0  0  0  0  0  0  0  0  0  0  0  0
   56.6390   78.5520   29.0420 C   0  0  0  0  0  0  0  0  0  0  0  0
   57.8640   79.1410   29.3010 N   0  0  0  0  0  0  0  0  0  0  0  0
   58.1610   79.9450   30.3660 C   0  0  0  0  0  0  0  0  0  0  0  0
   57.4350   80.2100   31.3130 O   0  0  0  0  0  0  0  0  0  0  0  0
   59.4560   80.4280   30.2650 N   0  0  0  0  0  0  0  0  0  0  0  0
   59.9800   81.3600   31.2570 C   0  0  0  0  0  0  0  0  0  0  0  0
   60.3390   80.6080   32.5340 C   0  0  0  0  0  0  0  0  0  0  0  0
   61.1960   82.1110   30.7140 C   0  0  0  0  0  0  0  0  0  0  0  0
   56.1100   77.6320   29.8590 N   0  0  0  0  0  0  0  0  0  0  0  0
   54.8970   77.1440   29.5320 C   0  0  0  0  0  0  0  0  0  0  0  0
   54.2010   77.5470   28.4230 C   0  0  0  0  0  0  0  0  0  0  0  0
   52.9960   77.0380   28.1390 F   0  0  0  0  0  0  0  0  0  0  0  0
   53.9970   80.3770   26.1290 N   0  0  0  0  0  0  0  0  0  0  0  0
   54.4350   81.5710   26.8530 C   0  0  0  0  0  0  0  0  0  0  0  0
   55.5740   82.3000   26.1380 C   0  0  0  0  0  0  0  0  0  0  0  0
   53.3100   82.5200   27.2700 C   0  0  0  0  0  0  0  0  0  0  0  0
   52.5907   82.4049   24.9942 H   0  0  0  0  0  0  0  0  0  0  0  0
   53.6780   82.0492   23.6094 H   0  0  0  0  0  0  0  0  0  0  0  0
   51.9918   81.4301   23.6094 H   0  0  0  0  0  0  0  0  0  0  0  0
   53.7084   77.2613   25.2538 H   0  0  0  0  0  0  0  0  0  0  0  0
   58.6130   78.7890   28.7330 H   0  0  0  0  0  0  0  0  0  0  0  0
   59.7910   80.5530   29.3210 H   0  0  0  0  0  0  0  0  0  0  0  0
   59.2018   82.1028   31.4863 H   0  0  0  0  0  0  0  0  0  0  0  0
   60.0511   81.2110   33.4078 H   0  0  0  0  0  0  0  0  0  0  0  0
   59.8019   79.6483   32.5577 H   0  0  0  0  0  0  0  0  0  0  0  0
   61.4229   80.4222   32.5577 H   0  0  0  0  0  0  0  0  0  0  0  0
   61.8010   82.4847   31.5533 H   0  0  0  0  0  0  0  0  0  0  0  0
   61.8029   81.4302   30.0990 H   0  0  0  0  0  0  0  0  0  0  0  0
   60.8590   82.9585   30.0990 H   0  0  0  0  0  0  0  0  0  0  0  0
   54.4440   76.3855   30.1873 H   0  0  0  0  0  0  0  0  0  0  0  0
   54.8344   81.1841   27.8021 H   0  0  0  0  0  0  0  0  0  0  0  0
   56.2553   82.7361   26.8834 H   0  0  0  0  0  0  0  0  0  0  0  0
   56.1270   81.5876   25.5082 H   0  0  0  0  0  0  0  0  0  0  0  0
   55.1587   83.1006   25.5082 H   0  0  0  0  0  0  0  0  0  0  0  0
   53.2564   82.5652   28.3678 H   0  0  0  0  0  0  0  0  0  0  0  0
   53.5114   83.5251   26.8710 H   0  0  0  0  0  0  0  0  0  0  0  0
   52.3532   82.1521   26.8710 H   0  0  0  0  0  0  0  0  0  0  0  0
  1  2  1  0
  2  3  2  0
  3  4  1  0
  4  5  2  0
  5  6  1  0
  6  7  2  0
  7  8  1  0
  8  9  1  0
  9 10  1  0
 10 11  2  0
 10 12  1  0
 12 13  1  0
 13 14  1  0
 13 15  1  0
  8 16  2  0
 16 17  1  0
 17 18  2  0
 18 19  1  0
  5 20  1  0
 20 21  1  0
 21 22  1  0
 21 23  1  0
 20  2  1  0
 18  6  1  0
  1 24  1  0
  1 25  1  0
  1 26  1  0
  4 27  1  0
  9 28  1  0
 12 29  1  0
 13 30  1  0
 14 31  1  0
 14 32  1  0
 14 33  1  0
 15 34  1  0
 15 35  1  0
 15 36  1  0
 17 37  1  0
 21 38  1  0
 22 39  1  0
 22 40  1  0
 22 41  1  0
 23 42  1  0
 23 43  1  0
 23 44  1  0
M  END
>  <meeko>  (1) 
{"is_sidechain": false}

>  <smiles>  (1) 
Cc1ncc(-c2nc(NC(=O)NC(C)C)ncc2F)n1C(C)C

>  <vina_score>  (1) 
-7.482

>  <job_id>  (1) 
fe69ed7fb11582c1

$$$$
