
     RDKit          3D

 46 49  0  0  0  0  0  0  0  0999 V2000
   59.6800   80.9830   28.8670 O   0  0  0  0  0  0  0  0  0  0  0  0
   58.9670   80.3250   29.6190 C   0  0  0  0  0  0  0  0  0  0  0  0
   58.9170   80.4240   31.1260 C   0  0  0  0  0  0  0  0  0  0  0  0
   59.1940   81.8100   31.6560 C   0  0  0  0  0  0  0  0  0  0  0  0
   58.1840   82.7840   31.6640 C   0  0  0  0  0  0  0  0  0  0  0  0
   58.4340   84.0610   32.1700 C   0  0  0  0  0  0  0  0  0  0  0  0
   59.6930   84.3780   32.6780 C   0  0  0  0  0  0  0  0  0  0  0  0
   60.6980   83.4120   32.6810 C   0  0  0  0  0  0  0  0  0  0  0  0
   62.2520   83.8000   33.3110 Cl  0  0  0  0  0  0  0  0  0  0  0  0
   60.4560   82.1340   32.1770 C   0  0  0  0  0  0  0  0  0  0  0  0
   58.0260   79.2960   28.9980 C   0  0  0  0  0  0  0  0  0  0  0  0
   58.2220   78.8830   27.8630 O   0  0  0  0  0  0  0  0  0  0  0  0
   57.0010   78.9310   29.8460 N   0  0  0  0  0  0  0  0  0  0  0  0
   56.0340   78.0150   29.4850 C   0  0  0  0  0  0  0  0  0  0  0  0
   55.9370   76.7450   30.0000 N   0  0  0  0  0  0  0  0  0  0  0  0
   54.9180   76.0130   29.5080 N   0  0  0  0  0  0  0  0  0  0  0  0
   54.3170   76.8220   28.6210 C   0  0  0  0  0  0  0  0  0  0  0  0
   53.2100   76.5830   27.7910 C   0  0  0  0  0  0  0  0  0  0  0  0
   52.8550   77.6820   26.9740 C   0  0  0  0  0  0  0  0  0  0  0  0
   53.5350   78.9430   26.9990 C   0  0  0  0  0  0  0  0  0  0  0  0
   53.1530   79.9990   26.1060 N   0  0  0  0  0  0  0  0  0  0  0  0
   52.9330   79.7300   24.6730 C   0  0  0  0  0  0  0  0  0  0  0  0
   52.5760   81.0990   24.0960 C   0  0  0  0  0  0  0  0  0  0  0  0
   53.6050   82.0780   24.6500 C   0  0  0  0  0  0  0  0  0  0  0  0
   54.0040   81.4810   26.2880 S   0  0  0  0  0  0  0  0  0  0  0  0
   53.3280   82.2740   27.2900 O   0  0  0  0  0  0  0  0  0  0  0  0
   55.4240   81.2090   26.3310 O   0  0  0  0  0  0  0  0  0  0  0  0
   54.6690   79.1960   27.8020 C   0  0  0  0  0  0  0  0  0  0  0  0
   54.9960   78.0970   28.5930 C   0  0  0  0  0  0  0  0  0  0  0  0
   57.9144   80.1190   31.4603 H   0  0  0  0  0  0  0  0  0  0  0  0
   59.7091   79.7680   31.5162 H   0  0  0  0  0  0  0  0  0  0  0  0
   57.1872   82.5395   31.2684 H   0  0  0  0  0  0  0  0  0  0  0  0
   57.6362   84.8183   32.1678 H   0  0  0  0  0  0  0  0  0  0  0  0
   59.8922   85.3847   33.0742 H   0  0  0  0  0  0  0  0  0  0  0  0
   61.2558   81.3789   32.1880 H   0  0  0  0  0  0  0  0  0  0  0  0
   56.9680   79.3690   30.7640 H   0  0  0  0  0  0  0  0  0  0  0  0
   56.5500   76.3290   30.6970 H   0  0  0  0  0  0  0  0  0  0  0  0
   52.6671   75.6264   27.7773 H   0  0  0  0  0  0  0  0  0  0  0  0
   52.0095   77.5617   26.2807 H   0  0  0  0  0  0  0  0  0  0  0  0
   53.8454   79.3330   24.2042 H   0  0  0  0  0  0  0  0  0  0  0  0
   52.1509   78.9769   24.4966 H   0  0  0  0  0  0  0  0  0  0  0  0
   52.6265   81.0743   22.9974 H   0  0  0  0  0  0  0  0  0  0  0  0
   51.5532   81.3950   24.3721 H   0  0  0  0  0  0  0  0  0  0  0  0
   54.5039   82.0898   24.0161 H   0  0  0  0  0  0  0  0  0  0  0  0
   53.2157   83.1065   24.6753 H   0  0  0  0  0  0  0  0  0  0  0  0
   55.2258   80.1447   27.8027 H   0  0  0  0  0  0  0  0  0  0  0  0
  1  2  2  0
  2  3  1  0
  3  4  1  0
  4  5  2  0
  5  6  1  0
  6  7  2  0
  7  8  1  0
  8  9  1  0
  8 10  2  0
  2 11  1  0
 11 12  2  0
 11 13  1  0
 13 14  1  0
 14 15  1  0
 15 16  1  0
 16 17  2  0
 17 18  1  0
 18 19  2  0
 19 20  1  0
 20 21  1  0
 21 22  1  0
 22 23  1  0
 23 24  1  0
 24 25  1  0
 25 26  2  0
 25 27  2  0
 20 28  2  0
 28 29  1  0
 10  4  1  0
 29 14  2  0
 29 17  1  0
 25 21  1  0
  3 30  1  0
  3 31  1  0
  5 32  1  0
  6 33  1  0
  7 34  1  0
 10 35  1  0
 13 36  1  0
 15 37  1  0
 18 38  1  0
 19 39  1  0
 22 40  1  0
 22 41  1  0
 23 42  1  0
 23 43  1  0
 24 44  1  0
 24 45  1  0
 28 46  1  0
M  END
>  <meeko>  (1) 
{"is_sidechain": false}

>  <smiles>  (1) 
O=C(Cc1cccc(Cl)c1)C(=O)Nc1[nH]nc2ccc(N3CCCS3(=O)=O)cc12

>  <vina_score>  (1) 
-9.412

>  <job_id>  (1) 
fe70107bc4d2793d

$$$$
