
     RDKit          3D

 58 61  0  0  0  0  0  0  0  0999 V2000
   65.7660   86.4750   27.3740 C   0  0  0  0  0  0  0  0  0  0  0  0
   64.8180   86.0840   28.3590 O   0  0  0  0  0  0  0  0  0  0  0  0
   65.2010   85.1090   29.2400 C   0  0  0  0  0  0  0  0  0  0  0  0
   66.4700   84.5330   29.3210 C   0  0  0  0  0  0  0  0  0  0  0  0
   66.7580   83.5430   30.2700 C   0  0  0  0  0  0  0  0  0  0  0  0
   65.7230   83.1490   31.1230 C   0  0  0  0  0  0  0  0  0  0  0  0
   65.6870   82.2440   32.1460 N   0  0  0  0  0  0  0  0  0  0  0  0
   64.4940   82.1330   32.7430 N   0  0  0  0  0  0  0  0  0  0  0  0
   63.7060   83.0060   32.0860 C   0  0  0  0  0  0  0  0  0  0  0  0
   62.2850   83.1710   32.4470 C   0  0  0  0  0  0  0  0  0  0  0  0
   61.8310   84.2060   32.9280 O   0  0  0  0  0  0  0  0  0  0  0  0
   61.5040   82.0520   32.2160 N   0  0  0  0  0  0  0  0  0  0  0  0
   60.0820   82.0210   32.4870 C   0  0  0  0  0  0  0  0  0  0  0  0
   59.2790   81.6200   31.2460 C   0  0  0  0  0  0  0  0  0  0  0  0
   58.6370   80.2250   31.3940 C   0  0  0  0  0  0  0  0  0  0  0  0
   58.4830   79.4820   30.0600 C   0  0  0  0  0  0  0  0  0  0  0  0
   58.2080   80.4280   28.9830 N   0  0  0  0  0  0  0  0  0  0  0  0
   57.6730   79.8100   27.7620 C   0  0  0  0  0  0  0  0  0  0  0  0
   56.2900   80.2970   27.2930 C   0  0  0  0  0  0  0  0  0  0  0  0
   55.2320   79.2360   27.4880 C   0  0  0  0  0  0  0  0  0  0  0  0
   54.1560   79.1350   26.5960 C   0  0  0  0  0  0  0  0  0  0  0  0
   53.1700   78.1670   26.7880 C   0  0  0  0  0  0  0  0  0  0  0  0
   53.2560   77.3010   27.8710 C   0  0  0  0  0  0  0  0  0  0  0  0
   52.2700   76.3700   28.0190 O   0  0  0  0  0  0  0  0  0  0  0  0
   54.3130   77.3870   28.7700 C   0  0  0  0  0  0  0  0  0  0  0  0
   55.3000   78.3570   28.5790 C   0  0  0  0  0  0  0  0  0  0  0  0
   59.3290   81.3380   28.7290 C   0  0  0  0  0  0  0  0  0  0  0  0
   60.1500   81.6600   29.9870 C   0  0  0  0  0  0  0  0  0  0  0  0
   64.4430   83.6840   31.0630 C   0  0  0  0  0  0  0  0  0  0  0  0
   64.1830   84.6930   30.1110 C   0  0  0  0  0  0  0  0  0  0  0  0
   66.6746   86.8498   27.8679 H   0  0  0  0  0  0  0  0  0  0  0  0
   66.0208   85.6086   26.7460 H   0  0  0  0  0  0  0  0  0  0  0  0
   65.3359   87.2692   26.7460 H   0  0  0  0  0  0  0  0  0  0  0  0
   67.2579   84.8621   28.6275 H   0  0  0  0  0  0  0  0  0  0  0  0
   67.7594   83.0935   30.3410 H   0  0  0  0  0  0  0  0  0  0  0  0
   66.4480   81.6690   32.4880 H   0  0  0  0  0  0  0  0  0  0  0  0
   61.9570   81.1960   31.9270 H   0  0  0  0  0  0  0  0  0  0  0  0
   59.8873   81.2931   33.2884 H   0  0  0  0  0  0  0  0  0  0  0  0
   59.7675   83.0312   32.7881 H   0  0  0  0  0  0  0  0  0  0  0  0
   58.4690   82.3574   31.1454 H   0  0  0  0  0  0  0  0  0  0  0  0
   59.2688   79.6190   32.0601 H   0  0  0  0  0  0  0  0  0  0  0  0
   57.6264   80.3735   31.8023 H   0  0  0  0  0  0  0  0  0  0  0  0
   59.4133   78.9389   29.8374 H   0  0  0  0  0  0  0  0  0  0  0  0
   57.6440   78.7750   30.1386 H   0  0  0  0  0  0  0  0  0  0  0  0
   58.3884   80.0031   26.9490 H   0  0  0  0  0  0  0  0  0  0  0  0
   57.5378   78.7469   28.0099 H   0  0  0  0  0  0  0  0  0  0  0  0
   56.0109   81.1902   27.8712 H   0  0  0  0  0  0  0  0  0  0  0  0
   56.3521   80.5282   26.2194 H   0  0  0  0  0  0  0  0  0  0  0  0
   54.0885   79.8225   25.7400 H   0  0  0  0  0  0  0  0  0  0  0  0
   52.3277   78.0897   26.0847 H   0  0  0  0  0  0  0  0  0  0  0  0
   51.5880   76.5340   27.3470 H   0  0  0  0  0  0  0  0  0  0  0  0
   54.3717   76.6970   29.6246 H   0  0  0  0  0  0  0  0  0  0  0  0
   56.1366   78.4320   29.2893 H   0  0  0  0  0  0  0  0  0  0  0  0
   59.9950   80.8725   27.9876 H   0  0  0  0  0  0  0  0  0  0  0  0
   58.9029   82.2856   28.3678 H   0  0  0  0  0  0  0  0  0  0  0  0
   60.9578   80.9201   30.0866 H   0  0  0  0  0  0  0  0  0  0  0  0
   60.5619   82.6746   29.8822 H   0  0  0  0  0  0  0  0  0  0  0  0
   63.1850   85.1519   30.0522 H   0  0  0  0  0  0  0  0  0  0  0  0
  1  2  1  0
  2  3  1  0
  3  4  2  0
  4  5  1  0
  5  6  2  0
  6  7  1  0
  7  8  1  0
  8  9  2  0
  9 10  1  0
 10 11  2  0
 10 12  1  0
 12 13  1  0
 13 14  1  0
 14 15  1  0
 15 16  1  0
 16 17  1  0
 17 18  1  0
 18 19  1  0
 19 20  1  0
 20 21  1  0
 21 22  2  0
 22 23  1  0
 23 24  1  0
 23 25  2  0
 25 26  1  0
 17 27  1  0
 27 28  1  0
  9 29  1  0
 29 30  2  0
 30  3  1  0
 29  6  1  0
 28 14  1  0
 26 20  2  0
  1 31  1  0
  1 32  1  0
  1 33  1  0
  4 34  1  0
  5 35  1  0
  7 36  1  0
 12 37  1  0
 13 38  1  0
 13 39  1  0
 14 40  1  0
 15 41  1  0
 15 42  1  0
 16 43  1  0
 16 44  1  0
 18 45  1  0
 18 46  1  0
 19 47  1  0
 19 48  1  0
 21 49  1  0
 22 50  1  0
 24 51  1  0
 25 52  1  0
 26 53  1  0
 27 54  1  0
 27 55  1  0
 28 56  1  0
 28 57  1  0
 30 58  1  0
M  END
>  <meeko>  (1) 
{"is_sidechain": false}

>  <smiles>  (1) 
COc1ccc2[nH]nc(C(=O)NCC3CCN(CCc4ccc(O)cc4)CC3)c2c1

>  <vina_score>  (1) 
-8.046

>  <job_id>  (1) 
fe9cdb087c08b528

$$$$
