
     RDKit          3D

 70 72  0  0  0  0  0  0  0  0999 V2000
   64.3960   81.7400   31.0200 C   0  0  0  0  0  0  0  0  0  0  0  0
   63.9360   81.9720   32.2630 C   0  0  0  0  0  0  0  0  0  0  0  0
   64.6710   82.9630   33.1380 C   0  0  0  0  0  0  0  0  0  0  0  0
   62.8350   81.2830   32.7570 N   0  0  0  0  0  0  0  0  0  0  0  0
   62.7620   80.7210   34.3200 S   0  0  0  0  0  0  0  0  0  0  0  0
   61.2420   81.4280   34.8310 C   0  0  0  0  0  0  0  0  0  0  0  0
   60.1850   80.6070   34.9670 C   0  0  0  0  0  0  0  0  0  0  0  0
   61.1930   82.9200   35.1550 C   0  0  1  0  0  0  0  0  0  0  0  0
   62.3130   83.2930   36.1360 C   0  0  0  0  0  0  0  0  0  0  0  0
   61.3110   83.8080   33.9830 N   0  0  0  0  0  0  0  0  0  0  0  0
   60.0480   84.4200   33.6460 C   0  0  0  0  0  0  0  0  0  0  0  0
   59.4340   83.4500   32.8040 N   0  0  0  0  0  0  0  0  0  0  0  0
   60.0380   83.0310   31.6430 C   0  0  0  0  0  0  0  0  0  0  0  0
   61.0500   83.5620   31.1940 O   0  0  0  0  0  0  0  0  0  0  0  0
   59.4210   81.8840   30.9210 C   0  0  0  0  0  0  0  0  0  0  0  0
   58.6280   80.9880   31.6460 C   0  0  0  0  0  0  0  0  0  0  0  0
   58.0240   79.8900   31.0140 C   0  0  0  0  0  0  0  0  0  0  0  0
   58.1930   79.6550   29.6470 C   0  0  0  0  0  0  0  0  0  0  0  0
   57.6100   78.5870   28.9580 N   0  0  0  0  0  0  0  0  0  0  0  0
   56.2980   78.1880   28.7220 C   0  0  0  0  0  0  0  0  0  0  0  0
   55.6660   77.3110   29.5180 N   0  0  0  0  0  0  0  0  0  0  0  0
   54.3980   76.9770   29.1920 C   0  0  0  0  0  0  0  0  0  0  0  0
   53.7390   77.4930   28.1100 C   0  0  0  0  0  0  0  0  0  0  0  0
   52.4830   77.1310   27.8270 F   0  0  0  0  0  0  0  0  0  0  0  0
   54.4500   78.4010   27.3590 C   0  0  0  0  0  0  0  0  0  0  0  0
   53.9020   79.0150   26.1580 C   0  0  0  0  0  0  0  0  0  0  0  0
   53.3080   78.3850   25.0790 C   0  0  0  0  0  0  0  0  0  0  0  0
   52.9350   79.2740   24.1160 N   0  0  0  0  0  0  0  0  0  0  0  0
   53.2750   80.4590   24.5750 C   0  0  0  0  0  0  0  0  0  0  0  0
   53.0730   81.7320   23.8340 C   0  0  0  0  0  0  0  0  0  0  0  0
   53.8380   80.3620   25.8410 N   0  0  0  0  0  0  0  0  0  0  0  0
   54.2120   81.5200   26.6550 C   0  0  0  0  0  0  0  0  0  0  0  0
   53.0380   82.4670   26.8970 C   0  0  0  0  0  0  0  0  0  0  0  0
   55.4680   82.2580   26.1840 C   0  0  0  0  0  0  0  0  0  0  0  0
   55.7240   78.7510   27.6450 N   0  0  0  0  0  0  0  0  0  0  0  0
   58.9840   80.5630   28.9290 C   0  0  0  0  0  0  0  0  0  0  0  0
   59.5860   81.6570   29.5580 C   0  0  0  0  0  0  0  0  0  0  0  0
   60.3230   82.4820   28.7990 F   0  0  0  0  0  0  0  0  0  0  0  0
   63.8772   81.0233   30.3664 H   0  0  0  0  0  0  0  0  0  0  0  0
   65.2909   82.2670   30.6574 H   0  0  0  0  0  0  0  0  0  0  0  0
   64.4918   82.7214   34.1961 H   0  0  0  0  0  0  0  0  0  0  0  0
   65.7493   82.9091   32.9271 H   0  0  0  0  0  0  0  0  0  0  0  0
   64.3065   83.9792   32.9271 H   0  0  0  0  0  0  0  0  0  0  0  0
   61.9540   81.6030   32.3570 H   0  0  0  0  0  0  0  0  0  0  0  0
   59.2126   81.0105   35.2858 H   0  0  0  0  0  0  0  0  0  0  0  0
   60.2931   79.5322   34.7594 H   0  0  0  0  0  0  0  0  0  0  0  0
   60.1951   83.0762   35.5906 H   0  0  0  0  0  0  0  0  0  0  0  0
   61.9517   83.1727   37.1680 H   0  0  0  0  0  0  0  0  0  0  0  0
   63.1788   82.6347   35.9715 H   0  0  0  0  0  0  0  0  0  0  0  0
   62.6112   84.3390   35.9715 H   0  0  0  0  0  0  0  0  0  0  0  0
   61.6230   83.2680   33.1810 H   0  0  0  0  0  0  0  0  0  0  0  0
   59.4435   84.6001   34.5472 H   0  0  0  0  0  0  0  0  0  0  0  0
   60.1584   85.4028   33.1645 H   0  0  0  0  0  0  0  0  0  0  0  0
   58.7150   82.8850   33.2370 H   0  0  0  0  0  0  0  0  0  0  0  0
   58.4761   81.1459   32.7240 H   0  0  0  0  0  0  0  0  0  0  0  0
   57.4050   79.2005   31.6068 H   0  0  0  0  0  0  0  0  0  0  0  0
   58.2330   77.8890   28.5780 H   0  0  0  0  0  0  0  0  0  0  0  0
   53.8686   76.2533   29.8292 H   0  0  0  0  0  0  0  0  0  0  0  0
   53.1553   77.2980   25.0072 H   0  0  0  0  0  0  0  0  0  0  0  0
   52.9422   82.5565   24.5504 H   0  0  0  0  0  0  0  0  0  0  0  0
   53.9507   81.9315   23.2017 H   0  0  0  0  0  0  0  0  0  0  0  0
   52.1766   81.6499   23.2017 H   0  0  0  0  0  0  0  0  0  0  0  0
   54.4929   81.0909   27.6281 H   0  0  0  0  0  0  0  0  0  0  0  0
   52.8841   82.5912   27.9791 H   0  0  0  0  0  0  0  0  0  0  0  0
   53.2562   83.4449   26.4431 H   0  0  0  0  0  0  0  0  0  0  0  0
   52.1284   82.0468   26.4431 H   0  0  0  0  0  0  0  0  0  0  0  0
   56.0439   82.5964   27.0580 H   0  0  0  0  0  0  0  0  0  0  0  0
   56.0863   81.5796   25.5778 H   0  0  0  0  0  0  0  0  0  0  0  0
   55.1763   83.1283   25.5778 H   0  0  0  0  0  0  0  0  0  0  0  0
   59.1339   80.4118   27.8498 H   0  0  0  0  0  0  0  0  0  0  0  0
  1  2  2  0
  2  3  1  0
  2  4  1  0
  4  5  1  0
  5  6  1  0
  6  7  2  0
  6  8  1  0
  8  9  1  0
  8 10  1  0
 10 11  1  0
 11 12  1  0
 12 13  1  0
 13 14  2  0
 13 15  1  0
 15 16  1  0
 16 17  2  0
 17 18  1  0
 18 19  1  0
 19 20  1  0
 20 21  2  0
 21 22  1  0
 22 23  2  0
 23 24  1  0
 23 25  1  0
 25 26  1  0
 26 27  2  0
 27 28  1  0
 28 29  2  0
 29 30  1  0
 29 31  1  0
 31 32  1  0
 32 33  1  0
 32 34  1  0
 25 35  2  0
 18 36  2  0
 36 37  1  0
 37 38  1  0
 37 15  2  0
 35 20  1  0
 31 26  1  0
  1 39  1  0
  1 40  1  0
  3 41  1  0
  3 42  1  0
  3 43  1  0
  4 44  1  0
  7 45  1  0
  7 46  1  0
  8 47  1  1
  9 48  1  0
  9 49  1  0
  9 50  1  0
 10 51  1  0
 11 52  1  0
 11 53  1  0
 12 54  1  0
 16 55  1  0
 17 56  1  0
 19 57  1  0
 22 58  1  0
 27 59  1  0
 30 60  1  0
 30 61  1  0
 30 62  1  0
 32 63  1  0
 33 64  1  0
 33 65  1  0
 33 66  1  0
 34 67  1  0
 34 68  1  0
 34 69  1  0
 36 70  1  0
M  END
>  <meeko>  (1) 
{"is_sidechain": false}

>  <smiles>  (1) 
C=C(C)NSC(=C)[C@@H](C)NCNC(=O)c1ccc(Nc2ncc(F)c(-c3cnc(C)n3C(C)C)n2)cc1F

>  <vina_score>  (1) 
-8.369

>  <job_id>  (1) 
ff0dc5444bf7d37d

$$$$
