
     RDKit          3D

 43 45  0  0  0  0  0  0  0  0999 V2000
   52.1850   75.4110   26.5200 C   0  0  0  0  0  0  0  0  0  0  0  0
   52.5730   75.3660   27.8860 O   0  0  0  0  0  0  0  0  0  0  0  0
   53.5240   76.2610   28.2900 C   0  0  0  0  0  0  0  0  0  0  0  0
   53.5700   77.6150   27.9640 C   0  0  0  0  0  0  0  0  0  0  0  0
   54.6090   78.4200   28.4500 C   0  0  0  0  0  0  0  0  0  0  0  0
   55.6140   77.8860   29.2660 C   0  0  0  0  0  0  0  0  0  0  0  0
   56.6170   78.7690   29.7170 N   0  0  0  0  0  0  0  0  0  0  0  0
   57.7160   79.2220   29.0100 C   0  0  0  0  0  0  0  0  0  0  0  0
   57.9820   78.9930   27.8370 O   0  0  0  0  0  0  0  0  0  0  0  0
   58.6290   80.1160   29.7780 C   0  0  0  0  0  0  0  0  0  0  0  0
   58.5600   80.1080   31.1720 C   0  0  0  0  0  0  0  0  0  0  0  0
   59.4010   80.9340   31.9280 C   0  0  0  0  0  0  0  0  0  0  0  0
   60.3310   81.7880   31.3180 C   0  0  0  0  0  0  0  0  0  0  0  0
   61.1850   82.6440   32.0310 N   0  0  0  0  0  0  0  0  0  0  0  0
   61.2260   82.5190   33.5050 C   0  0  0  0  0  0  0  0  0  0  0  0
   62.0390   83.6760   34.1070 C   0  0  0  0  0  0  0  0  0  0  0  0
   63.3720   83.7120   33.5690 O   0  0  0  0  0  0  0  0  0  0  0  0
   63.3190   83.8930   32.1450 C   0  0  0  0  0  0  0  0  0  0  0  0
   62.5470   82.7580   31.4540 C   0  0  0  0  0  0  0  0  0  0  0  0
   60.3590   81.8030   29.9120 C   0  0  0  0  0  0  0  0  0  0  0  0
   59.5230   80.9820   29.1450 C   0  0  0  0  0  0  0  0  0  0  0  0
   55.5600   76.5320   29.5930 C   0  0  0  0  0  0  0  0  0  0  0  0
   54.5220   75.7290   29.1060 C   0  0  0  0  0  0  0  0  0  0  0  0
   51.0944   75.5375   26.4526 H   0  0  0  0  0  0  0  0  0  0  0  0
   52.6836   76.2573   26.0249 H   0  0  0  0  0  0  0  0  0  0  0  0
   52.4766   74.4730   26.0249 H   0  0  0  0  0  0  0  0  0  0  0  0
   52.7895   78.0526   27.3242 H   0  0  0  0  0  0  0  0  0  0  0  0
   54.6356   79.4876   28.1865 H   0  0  0  0  0  0  0  0  0  0  0  0
   56.4710   79.1610   30.6370 H   0  0  0  0  0  0  0  0  0  0  0  0
   57.8406   79.4488   31.6799 H   0  0  0  0  0  0  0  0  0  0  0  0
   59.3304   80.9124   33.0255 H   0  0  0  0  0  0  0  0  0  0  0  0
   60.2006   82.5488   33.9020 H   0  0  0  0  0  0  0  0  0  0  0  0
   61.7019   81.5644   33.7738 H   0  0  0  0  0  0  0  0  0  0  0  0
   61.5342   84.6261   33.8780 H   0  0  0  0  0  0  0  0  0  0  0  0
   62.1070   83.5242   35.1944 H   0  0  0  0  0  0  0  0  0  0  0  0
   62.8196   84.8483   31.9258 H   0  0  0  0  0  0  0  0  0  0  0  0
   64.3498   83.8887   31.7611 H   0  0  0  0  0  0  0  0  0  0  0  0
   62.4696   82.9729   30.3780 H   0  0  0  0  0  0  0  0  0  0  0  0
   63.0843   81.8106   31.6084 H   0  0  0  0  0  0  0  0  0  0  0  0
   61.0584   82.4798   29.3994 H   0  0  0  0  0  0  0  0  0  0  0  0
   59.5705   81.0192   28.0467 H   0  0  0  0  0  0  0  0  0  0  0  0
   56.3364   76.0927   30.2365 H   0  0  0  0  0  0  0  0  0  0  0  0
   54.4930   74.6618   29.3710 H   0  0  0  0  0  0  0  0  0  0  0  0
  1  2  1  0
  2  3  1  0
  3  4  1  0
  4  5  2  0
  5  6  1  0
  6  7  1  0
  7  8  1  0
  8  9  2  0
  8 10  1  0
 10 11  1  0
 11 12  2  0
 12 13  1  0
 13 14  1  0
 14 15  1  0
 15 16  1  0
 16 17  1  0
 17 18  1  0
 18 19  1  0
 13 20  2  0
 20 21  1  0
  6 22  2  0
 22 23  1  0
 23  3  2  0
 21 10  2  0
 19 14  1  0
  1 24  1  0
  1 25  1  0
  1 26  1  0
  4 27  1  0
  5 28  1  0
  7 29  1  0
 11 30  1  0
 12 31  1  0
 15 32  1  0
 15 33  1  0
 16 34  1  0
 16 35  1  0
 18 36  1  0
 18 37  1  0
 19 38  1  0
 19 39  1  0
 20 40  1  0
 21 41  1  0
 22 42  1  0
 23 43  1  0
M  END
>  <meeko>  (1) 
{"is_sidechain": false}

>  <smiles>  (1) 
COc1ccc(NC(=O)c2ccc(N3CCOCC3)cc2)cc1

>  <vina_score>  (1) 
-7.819

>  <job_id>  (1) 
ff59e6de7f6111db

$$$$
