
     RDKit          3D

 67 70  0  0  0  0  0  0  0  0999 V2000
   52.0850   81.3390   24.6810 C   0  0  0  0  0  0  0  0  0  0  0  0
   52.9250   80.4080   24.2090 C   0  0  0  0  0  0  0  0  0  0  0  0
   53.6710   79.4220   25.0410 C   0  0  0  0  0  0  0  0  0  0  0  0
   54.0530   78.3870   24.5070 O   0  0  0  0  0  0  0  0  0  0  0  0
   53.8950   79.8330   26.3330 N   0  0  0  0  0  0  0  0  0  0  0  0
   54.5640   79.1260   27.3550 C   0  0  0  0  0  0  0  0  0  0  0  0
   53.9630   78.1460   28.1490 C   0  0  0  0  0  0  0  0  0  0  0  0
   54.6970   77.4740   29.1330 C   0  0  0  0  0  0  0  0  0  0  0  0
   56.0370   77.7850   29.3440 C   0  0  0  0  0  0  0  0  0  0  0  0
   56.6370   78.7870   28.5770 C   0  0  0  0  0  0  0  0  0  0  0  0
   58.0650   79.1360   28.7550 C   0  0  0  0  0  0  0  0  0  0  0  0
   58.8910   78.5220   28.0830 O   0  0  0  0  0  0  0  0  0  0  0  0
   58.4160   80.1330   29.6640 N   0  0  0  0  0  0  0  0  0  0  0  0
   58.1880   79.8610   31.0810 C   0  0  0  0  0  0  0  0  0  0  0  0
   58.1850   81.1420   31.9040 C   0  0  0  0  0  0  0  0  0  0  0  0
   59.5050   81.9090   31.7840 C   0  0  0  0  0  0  0  0  0  0  0  0
   60.2350   81.6650   30.4520 C   0  0  0  0  0  0  0  0  0  0  0  0
   61.0040   82.8450   30.0680 N   0  0  0  0  0  0  0  0  0  0  0  0
   62.1590   83.1980   30.6820 C   0  0  0  0  0  0  0  0  0  0  0  0
   63.0430   82.2850   31.0120 N   0  0  0  0  0  0  0  0  0  0  0  0
   64.1210   82.8700   31.6490 C   0  0  0  0  0  0  0  0  0  0  0  0
   64.0660   84.2400   31.7810 C   0  0  0  0  0  0  0  0  0  0  0  0
   65.2720   85.2560   32.5450 S   0  0  0  0  0  0  0  0  0  0  0  0
   66.7310   84.9090   31.5150 C   0  0  0  0  0  0  0  0  0  0  0  0
   66.4500   85.1770   30.0820 C   0  0  0  0  0  0  0  0  0  0  0  0
   66.7060   84.4230   29.0300 N   0  0  0  0  0  0  0  0  0  0  0  0
   66.2430   85.1650   27.9740 C   0  0  0  0  0  0  0  0  0  0  0  0
   65.7290   86.3630   28.4190 C   0  0  0  0  0  0  0  0  0  0  0  0
   65.0950   87.5640   27.7790 C   0  0  0  0  0  0  0  0  0  0  0  0
   65.9750   88.8040   28.0150 C   0  0  0  0  0  0  0  0  0  0  0  0
   64.9360   87.3570   26.2620 C   0  0  0  0  0  0  0  0  0  0  0  0
   63.7030   87.8030   28.3900 C   0  0  0  0  0  0  0  0  0  0  0  0
   65.8690   86.3810   29.7820 O   0  0  0  0  0  0  0  0  0  0  0  0
   62.5940   84.8070   31.1250 S   0  0  0  0  0  0  0  0  0  0  0  0
   59.2370   81.3050   29.3300 C   0  0  0  0  0  0  0  0  0  0  0  0
   55.9100   79.4400   27.5730 C   0  0  0  0  0  0  0  0  0  0  0  0
   51.5782   82.0253   23.9866 H   0  0  0  0  0  0  0  0  0  0  0  0
   51.9022   81.4171   25.7629 H   0  0  0  0  0  0  0  0  0  0  0  0
   53.0761   80.3682   23.1202 H   0  0  0  0  0  0  0  0  0  0  0  0
   53.5950   80.7690   26.5720 H   0  0  0  0  0  0  0  0  0  0  0  0
   52.9014   77.9000   27.9991 H   0  0  0  0  0  0  0  0  0  0  0  0
   54.2127   76.6967   29.7423 H   0  0  0  0  0  0  0  0  0  0  0  0
   56.6183   77.2471   30.1074 H   0  0  0  0  0  0  0  0  0  0  0  0
   57.2154   79.3602   31.1964 H   0  0  0  0  0  0  0  0  0  0  0  0
   59.0051   79.2205   31.4443 H   0  0  0  0  0  0  0  0  0  0  0  0
   57.3668   81.7875   31.5519 H   0  0  0  0  0  0  0  0  0  0  0  0
   58.0499   80.8650   32.9599 H   0  0  0  0  0  0  0  0  0  0  0  0
   59.2925   82.9846   31.8731 H   0  0  0  0  0  0  0  0  0  0  0  0
   60.1646   81.5473   32.5866 H   0  0  0  0  0  0  0  0  0  0  0  0
   60.9213   80.8173   30.5950 H   0  0  0  0  0  0  0  0  0  0  0  0
   60.4390   83.6550   29.8240 H   0  0  0  0  0  0  0  0  0  0  0  0
   64.9687   82.2793   32.0265 H   0  0  0  0  0  0  0  0  0  0  0  0
   67.5631   85.5489   31.8437 H   0  0  0  0  0  0  0  0  0  0  0  0
   66.9927   83.8464   31.6268 H   0  0  0  0  0  0  0  0  0  0  0  0
   66.2772   84.8485   26.9211 H   0  0  0  0  0  0  0  0  0  0  0  0
   66.0926   88.9698   29.0961 H   0  0  0  0  0  0  0  0  0  0  0  0
   66.9632   88.6445   27.5588 H   0  0  0  0  0  0  0  0  0  0  0  0
   65.4983   89.6841   27.5588 H   0  0  0  0  0  0  0  0  0  0  0  0
   64.2755   86.4971   26.0765 H   0  0  0  0  0  0  0  0  0  0  0  0
   64.4972   88.2601   25.8127 H   0  0  0  0  0  0  0  0  0  0  0  0
   65.9217   87.1659   25.8127 H   0  0  0  0  0  0  0  0  0  0  0  0
   63.7772   87.7903   29.4874 H   0  0  0  0  0  0  0  0  0  0  0  0
   63.3204   88.7800   28.0597 H   0  0  0  0  0  0  0  0  0  0  0  0
   63.0164   87.0096   28.0597 H   0  0  0  0  0  0  0  0  0  0  0  0
   58.5723   82.1647   29.1595 H   0  0  0  0  0  0  0  0  0  0  0  0
   59.8194   81.0603   28.4295 H   0  0  0  0  0  0  0  0  0  0  0  0
   56.4004   80.2043   26.9523 H   0  0  0  0  0  0  0  0  0  0  0  0
  1  2  2  0
  2  3  1  0
  3  4  2  0
  3  5  1  0
  5  6  1  0
  6  7  2  0
  7  8  1  0
  8  9  2  0
  9 10  1  0
 10 11  1  0
 11 12  2  0
 11 13  1  0
 13 14  1  0
 14 15  1  0
 15 16  1  0
 16 17  1  0
 17 18  1  0
 18 19  1  0
 19 20  2  0
 20 21  1  0
 21 22  2  0
 22 23  1  0
 23 24  1  0
 24 25  1  0
 25 26  2  0
 26 27  1  0
 27 28  2  0
 28 29  1  0
 29 30  1  0
 29 31  1  0
 29 32  1  0
 28 33  1  0
 22 34  1  0
 17 35  1  0
 10 36  2  0
 36  6  1  0
 35 13  1  0
 34 19  1  0
 33 25  1  0
  1 37  1  0
  1 38  1  0
  2 39  1  0
  5 40  1  0
  7 41  1  0
  8 42  1  0
  9 43  1  0
 14 44  1  0
 14 45  1  0
 15 46  1  0
 15 47  1  0
 16 48  1  0
 16 49  1  0
 17 50  1  0
 18 51  1  0
 21 52  1  0
 24 53  1  0
 24 54  1  0
 27 55  1  0
 30 56  1  0
 30 57  1  0
 30 58  1  0
 31 59  1  0
 31 60  1  0
 31 61  1  0
 32 62  1  0
 32 63  1  0
 32 64  1  0
 35 65  1  0
 35 66  1  0
 36 67  1  0
M  END
>  <meeko>  (1) 
{"is_sidechain": false}

>  <smiles>  (1) 
C=CC(=O)Nc1cccc(C(=O)N2CCCC(Nc3ncc(SCc4ncc(C(C)(C)C)o4)s3)C2)c1

>  <vina_score>  (1) 
-8.252

$$$$

     RDKit          3D

 59 61  0  0  0  0  0  0  0  0999 V2000
   63.0890   82.7550   30.7360 C   0  0  0  0  0  0  0  0  0  0  0  0
   62.5460   82.5970   32.1390 C   0  0  0  0  0  0  0  0  0  0  0  0
   61.2450   82.7810   32.4440 C   0  0  0  0  0  0  0  0  0  0  0  0
   60.1600   83.0610   31.4540 C   0  0  0  0  0  0  0  0  0  0  0  0
   59.8540   84.2000   31.1210 O   0  0  0  0  0  0  0  0  0  0  0  0
   59.5000   81.8900   30.8140 C   0  0  0  0  0  0  0  0  0  0  0  0
   58.7940   80.9340   31.5470 C   0  0  0  0  0  0  0  0  0  0  0  0
   58.1850   79.8570   30.8900 C   0  0  0  0  0  0  0  0  0  0  0  0
   58.2570   79.7080   29.4940 C   0  0  0  0  0  0  0  0  0  0  0  0
   57.6260   78.6070   28.9070 N   0  0  0  0  0  0  0  0  0  0  0  0
   56.2990   78.2470   28.7010 C   0  0  0  0  0  0  0  0  0  0  0  0
   55.6280   77.4680   29.5650 N   0  0  0  0  0  0  0  0  0  0  0  0
   54.3380   77.1930   29.2820 C   0  0  0  0  0  0  0  0  0  0  0  0
   53.6970   77.6580   28.1680 C   0  0  0  0  0  0  0  0  0  0  0  0
   52.4130   77.3610   27.9310 F   0  0  0  0  0  0  0  0  0  0  0  0
   54.4590   78.4340   27.3230 C   0  0  0  0  0  0  0  0  0  0  0  0
   53.9140   79.0300   26.1130 C   0  0  0  0  0  0  0  0  0  0  0  0
   53.3760   78.3840   25.0150 C   0  0  0  0  0  0  0  0  0  0  0  0
   52.9340   79.2640   24.0750 N   0  0  0  0  0  0  0  0  0  0  0  0
   53.1950   80.4600   24.5570 C   0  0  0  0  0  0  0  0  0  0  0  0
   52.8590   81.7330   23.8650 C   0  0  0  0  0  0  0  0  0  0  0  0
   53.8290   80.3750   25.7890 N   0  0  0  0  0  0  0  0  0  0  0  0
   54.3440   81.5340   26.5200 C   0  0  0  0  0  0  0  0  0  0  0  0
   53.2890   82.5760   26.9020 C   0  0  0  0  0  0  0  0  0  0  0  0
   55.5610   82.1620   25.8390 C   0  0  0  0  0  0  0  0  0  0  0  0
   55.7500   78.7420   27.5770 N   0  0  0  0  0  0  0  0  0  0  0  0
   58.9550   80.6850   28.7760 C   0  0  0  0  0  0  0  0  0  0  0  0
   59.5650   81.7660   29.4240 C   0  0  0  0  0  0  0  0  0  0  0  0
   63.6100   82.2390   33.1820 C   0  0  0  0  0  0  0  0  0  0  0  0
   64.9860   82.1070   32.5210 C   0  0  0  0  0  0  0  0  0  0  0  0
   63.3270   80.9830   34.0170 C   0  0  0  0  0  0  0  0  0  0  0  0
   64.1442   83.0620   30.7836 H   0  0  0  0  0  0  0  0  0  0  0  0
   63.0098   81.7965   30.2021 H   0  0  0  0  0  0  0  0  0  0  0  0
   62.5079   83.5213   30.2021 H   0  0  0  0  0  0  0  0  0  0  0  0
   60.9598   82.7203   33.5046 H   0  0  0  0  0  0  0  0  0  0  0  0
   58.7160   81.0265   32.6403 H   0  0  0  0  0  0  0  0  0  0  0  0
   57.6366   79.1090   31.4814 H   0  0  0  0  0  0  0  0  0  0  0  0
   58.2230   77.9050   28.4950 H   0  0  0  0  0  0  0  0  0  0  0  0
   53.7729   76.5621   29.9839 H   0  0  0  0  0  0  0  0  0  0  0  0
   53.3128   77.2905   24.9133 H   0  0  0  0  0  0  0  0  0  0  0  0
   52.6530   82.5133   24.6124 H   0  0  0  0  0  0  0  0  0  0  0  0
   53.7061   82.0428   23.2354 H   0  0  0  0  0  0  0  0  0  0  0  0
   51.9693   81.5844   23.2354 H   0  0  0  0  0  0  0  0  0  0  0  0
   54.6829   81.1201   27.4812 H   0  0  0  0  0  0  0  0  0  0  0  0
   53.2205   82.6437   27.9978 H   0  0  0  0  0  0  0  0  0  0  0  0
   53.5755   83.5554   26.4913 H   0  0  0  0  0  0  0  0  0  0  0  0
   52.3132   82.2774   26.4913 H   0  0  0  0  0  0  0  0  0  0  0  0
   56.2631   82.5243   26.6044 H   0  0  0  0  0  0  0  0  0  0  0  0
   56.0594   81.4085   25.2114 H   0  0  0  0  0  0  0  0  0  0  0  0
   55.2357   83.0048   25.2114 H   0  0  0  0  0  0  0  0  0  0  0  0
   59.0260   80.6024   27.6814 H   0  0  0  0  0  0  0  0  0  0  0  0
   60.1001   82.5242   28.8334 H   0  0  0  0  0  0  0  0  0  0  0  0
   63.5859   83.0784   33.8925 H   0  0  0  0  0  0  0  0  0  0  0  0
   65.7606   82.0327   33.2984 H   0  0  0  0  0  0  0  0  0  0  0  0
   65.0068   81.2027   31.8950 H   0  0  0  0  0  0  0  0  0  0  0  0
   65.1784   82.9908   31.8950 H   0  0  0  0  0  0  0  0  0  0  0  0
   63.3834   81.2334   35.0866 H   0  0  0  0  0  0  0  0  0  0  0  0
   62.3212   80.6051   33.7815 H   0  0  0  0  0  0  0  0  0  0  0  0
   64.0735   80.2102   33.7815 H   0  0  0  0  0  0  0  0  0  0  0  0
  1  2  1  0
  2  3  2  3
  3  4  1  0
  4  5  2  0
  4  6  1  0
  6  7  1  0
  7  8  2  0
  8  9  1  0
  9 10  1  0
 10 11  1  0
 11 12  2  0
 12 13  1  0
 13 14  2  0
 14 15  1  0
 14 16  1  0
 16 17  1  0
 17 18  2  0
 18 19  1  0
 19 20  2  0
 20 21  1  0
 20 22  1  0
 22 23  1  0
 23 24  1  0
 23 25  1  0
 16 26  2  0
  9 27  2  0
 27 28  1  0
  2 29  1  0
 29 30  1  0
 29 31  1  0
 28  6  2  0
 26 11  1  0
 22 17  1  0
  1 32  1  0
  1 33  1  0
  1 34  1  0
  3 35  1  0
  7 36  1  0
  8 37  1  0
 10 38  1  0
 13 39  1  0
 18 40  1  0
 21 41  1  0
 21 42  1  0
 21 43  1  0
 23 44  1  0
 24 45  1  0
 24 46  1  0
 24 47  1  0
 25 48  1  0
 25 49  1  0
 25 50  1  0
 27 51  1  0
 28 52  1  0
 29 53  1  0
 30 54  1  0
 30 55  1  0
 30 56  1  0
 31 57  1  0
 31 58  1  0
 31 59  1  0
M  END
>  <meeko>  (2) 
{"is_sidechain": false}

>  <smiles>  (2) 
CC(=CC(=O)c1ccc(Nc2ncc(F)c(-c3cnc(C)n3C(C)C)n2)cc1)C(C)C

>  <vina_score>  (2) 
-9.103

$$$$

     RDKit          3D

 53 55  0  0  0  0  0  0  0  0999 V2000
   52.4570   81.6660   23.4550 C   0  0  0  0  0  0  0  0  0  0  0  0
   52.7760   80.2530   23.8760 C   0  0  0  0  0  0  0  0  0  0  0  0
   52.1850   79.3050   23.3610 O   0  0  0  0  0  0  0  0  0  0  0  0
   53.7520   80.0950   24.8530 N   0  0  0  0  0  0  0  0  0  0  0  0
   54.0730   78.7480   25.3220 C   0  0  0  0  0  0  0  0  0  0  0  0
   54.3260   78.7320   26.8240 C   0  0  0  0  0  0  0  0  0  0  0  0
   55.4200   79.7240   27.2540 C   0  0  0  0  0  0  0  0  0  0  0  0
   56.6360   79.0040   27.6450 N   0  0  0  0  0  0  0  0  0  0  0  0
   57.4490   79.4600   28.6930 C   0  0  0  0  0  0  0  0  0  0  0  0
   58.5420   80.3130   28.5110 C   0  0  0  0  0  0  0  0  0  0  0  0
   59.2760   80.7890   29.6070 C   0  0  0  0  0  0  0  0  0  0  0  0
   58.9200   80.4370   30.9120 C   0  0  0  0  0  0  0  0  0  0  0  0
   59.6870   80.9410   32.0410 C   0  0  0  0  0  0  0  0  0  0  0  0
   60.3350   80.2380   33.0340 C   0  0  0  0  0  0  0  0  0  0  0  0
   60.9500   81.0770   33.9150 N   0  0  0  0  0  0  0  0  0  0  0  0
   60.6970   82.2990   33.4940 C   0  0  0  0  0  0  0  0  0  0  0  0
   61.1900   83.5180   34.1840 C   0  0  0  0  0  0  0  0  0  0  0  0
   59.9100   82.2750   32.3550 N   0  0  0  0  0  0  0  0  0  0  0  0
   59.3810   83.4090   31.5970 C   0  0  0  0  0  0  0  0  0  0  0  0
   58.1850   84.0970   32.2580 C   0  0  0  0  0  0  0  0  0  0  0  0
   60.4760   84.4070   31.2170 C   0  0  0  0  0  0  0  0  0  0  0  0
   57.8100   79.6180   31.1160 C   0  0  0  0  0  0  0  0  0  0  0  0
   57.0910   79.1510   30.0180 C   0  0  0  0  0  0  0  0  0  0  0  0
   56.0300   78.3570   30.2400 F   0  0  0  0  0  0  0  0  0  0  0  0
   55.7720   80.7230   26.1410 C   0  0  0  0  0  0  0  0  0  0  0  0
   54.5200   81.2010   25.4180 C   0  0  0  0  0  0  0  0  0  0  0  0
   52.3157   82.2918   24.3486 H   0  0  0  0  0  0  0  0  0  0  0  0
   53.2874   82.0661   22.8547 H   0  0  0  0  0  0  0  0  0  0  0  0
   51.5352   81.6705   22.8547 H   0  0  0  0  0  0  0  0  0  0  0  0
   53.2308   78.0784   25.0931 H   0  0  0  0  0  0  0  0  0  0  0  0
   54.9873   78.4108   24.8117 H   0  0  0  0  0  0  0  0  0  0  0  0
   53.3910   78.9940   27.3408 H   0  0  0  0  0  0  0  0  0  0  0  0
   54.6705   77.7221   27.0914 H   0  0  0  0  0  0  0  0  0  0  0  0
   55.0175   80.2872   28.1088 H   0  0  0  0  0  0  0  0  0  0  0  0
   57.2110   78.6760   26.8680 H   0  0  0  0  0  0  0  0  0  0  0  0
   58.8302   80.6150   27.4933 H   0  0  0  0  0  0  0  0  0  0  0  0
   60.1414   81.4466   29.4378 H   0  0  0  0  0  0  0  0  0  0  0  0
   60.3535   79.1405   33.1063 H   0  0  0  0  0  0  0  0  0  0  0  0
   61.1311   83.3722   35.2727 H   0  0  0  0  0  0  0  0  0  0  0  0
   62.2347   83.7056   33.8952 H   0  0  0  0  0  0  0  0  0  0  0  0
   60.5694   84.3791   33.8952 H   0  0  0  0  0  0  0  0  0  0  0  0
   58.9884   82.9749   30.6656 H   0  0  0  0  0  0  0  0  0  0  0  0
   58.2868   84.0385   33.3517 H   0  0  0  0  0  0  0  0  0  0  0  0
   58.1520   85.1521   31.9488 H   0  0  0  0  0  0  0  0  0  0  0  0
   57.2563   83.5951   31.9488 H   0  0  0  0  0  0  0  0  0  0  0  0
   60.9289   84.8198   32.1305 H   0  0  0  0  0  0  0  0  0  0  0  0
   61.2483   83.8957   30.6236 H   0  0  0  0  0  0  0  0  0  0  0  0
   60.0383   85.2233   30.6236 H   0  0  0  0  0  0  0  0  0  0  0  0
   57.5044   79.3428   32.1362 H   0  0  0  0  0  0  0  0  0  0  0  0
   56.2837   81.5897   26.5847 H   0  0  0  0  0  0  0  0  0  0  0  0
   56.4253   80.2196   25.4132 H   0  0  0  0  0  0  0  0  0  0  0  0
   53.8845   81.7448   26.1324 H   0  0  0  0  0  0  0  0  0  0  0  0
   54.8367   81.8501   24.5884 H   0  0  0  0  0  0  0  0  0  0  0  0
  1  2  1  0
  2  3  2  0
  2  4  1  0
  4  5  1  0
  5  6  1  0
  6  7  1  0
  7  8  1  0
  8  9  1  0
  9 10  1  0
 10 11  2  0
 11 12  1  0
 12 13  1  0
 13 14  2  0
 14 15  1  0
 15 16  2  0
 16 17  1  0
 16 18  1  0
 18 19  1  0
 19 20  1  0
 19 21  1  0
 12 22  2  0
 22 23  1  0
 23 24  1  0
  7 25  1  0
 25 26  1  0
 26  4  1  0
 23  9  2  0
 18 13  1  0
  1 27  1  0
  1 28  1  0
  1 29  1  0
  5 30  1  0
  5 31  1  0
  6 32  1  0
  6 33  1  0
  7 34  1  0
  8 35  1  0
 10 36  1  0
 11 37  1  0
 14 38  1  0
 17 39  1  0
 17 40  1  0
 17 41  1  0
 19 42  1  0
 20 43  1  0
 20 44  1  0
 20 45  1  0
 21 46  1  0
 21 47  1  0
 21 48  1  0
 22 49  1  0
 25 50  1  0
 25 51  1  0
 26 52  1  0
 26 53  1  0
M  END
>  <meeko>  (3) 
{"is_sidechain": false}

>  <smiles>  (3) 
CC(=O)N1CCC(Nc2ccc(-c3cnc(C)n3C(C)C)cc2F)CC1

>  <vina_score>  (3) 
-7.682

$$$$

     RDKit          3D

 46 47  0  0  0  0  0  0  0  0999 V2000
   54.6970   87.3470   26.0970 C   0  0  0  0  0  0  0  0  0  0  0  0
   55.1300   85.9580   26.4980 C   0  0  0  0  0  0  0  0  0  0  0  0
   56.1040   85.7930   27.2240 O   0  0  0  0  0  0  0  0  0  0  0  0
   54.2940   84.9830   25.9860 N   0  0  0  0  0  0  0  0  0  0  0  0
   54.4070   83.5860   26.1440 C   0  0  0  0  0  0  0  0  0  0  0  0
   53.3150   82.9150   26.7040 C   0  0  0  0  0  0  0  0  0  0  0  0
   53.3460   81.5280   26.8950 C   0  0  0  0  0  0  0  0  0  0  0  0
   54.4730   80.7810   26.5310 C   0  0  0  0  0  0  0  0  0  0  0  0
   54.4900   79.2760   26.7470 C   0  0  0  0  0  0  0  0  0  0  0  0
   53.0840   78.6680   26.7560 C   0  0  0  0  0  0  0  0  0  0  0  0
   55.2420   78.8570   28.0130 C   0  0  0  0  0  0  0  0  0  0  0  0
   54.7670   78.1780   28.9220 O   0  0  0  0  0  0  0  0  0  0  0  0
   56.5660   79.2930   28.0370 N   0  0  0  0  0  0  0  0  0  0  0  0
   57.3680   78.7500   29.0650 N   0  0  0  0  0  0  0  0  0  0  0  0
   58.2710   79.6890   29.6290 C   0  0  0  0  0  0  0  0  0  0  0  0
   58.9350   80.5840   28.7740 C   0  0  0  0  0  0  0  0  0  0  0  0
   59.7760   81.5780   29.2810 C   0  0  0  0  0  0  0  0  0  0  0  0
   59.9280   81.7080   30.6620 C   0  0  0  0  0  0  0  0  0  0  0  0
   60.9940   82.9700   31.3030 S   0  0  0  0  0  0  0  0  0  0  0  0
   62.3180   82.8490   30.2700 N   0  0  0  0  0  0  0  0  0  0  0  0
   60.4020   84.2590   31.0230 O   0  0  0  0  0  0  0  0  0  0  0  0
   61.4200   82.5800   32.6250 O   0  0  0  0  0  0  0  0  0  0  0  0
   59.2580   80.8500   31.5340 C   0  0  0  0  0  0  0  0  0  0  0  0
   58.4210   79.8570   31.0150 C   0  0  0  0  0  0  0  0  0  0  0  0
   55.5580   81.4580   25.9570 C   0  0  0  0  0  0  0  0  0  0  0  0
   55.5260   82.8450   25.7690 C   0  0  0  0  0  0  0  0  0  0  0  0
   54.5098   87.9475   26.9994 H   0  0  0  0  0  0  0  0  0  0  0  0
   55.4902   87.8202   25.4997 H   0  0  0  0  0  0  0  0  0  0  0  0
   53.7754   87.2856   25.4997 H   0  0  0  0  0  0  0  0  0  0  0  0
   53.5000   85.3020   25.4460 H   0  0  0  0  0  0  0  0  0  0  0  0
   52.4206   83.4839   26.9981 H   0  0  0  0  0  0  0  0  0  0  0  0
   52.4756   81.0199   27.3357 H   0  0  0  0  0  0  0  0  0  0  0  0
   55.0386   78.8760   25.8815 H   0  0  0  0  0  0  0  0  0  0  0  0
   52.7531   78.5249   27.7952 H   0  0  0  0  0  0  0  0  0  0  0  0
   52.3882   79.3456   26.2396 H   0  0  0  0  0  0  0  0  0  0  0  0
   53.1011   77.6969   26.2396 H   0  0  0  0  0  0  0  0  0  0  0  0
   57.0550   79.4610   27.1640 H   0  0  0  0  0  0  0  0  0  0  0  0
   56.7610   78.3600   29.8030 H   0  0  0  0  0  0  0  0  0  0  0  0
   58.7905   80.5010   27.6867 H   0  0  0  0  0  0  0  0  0  0  0  0
   60.3134   82.2520   28.5977 H   0  0  0  0  0  0  0  0  0  0  0  0
   62.8040   83.7470   30.2490 H   0  0  0  0  0  0  0  0  0  0  0  0
   62.0720   82.5260   29.3350 H   0  0  0  0  0  0  0  0  0  0  0  0
   59.3869   80.9536   32.6215 H   0  0  0  0  0  0  0  0  0  0  0  0
   57.8718   79.1975   31.7031 H   0  0  0  0  0  0  0  0  0  0  0  0
   56.4487   80.8905   25.6494 H   0  0  0  0  0  0  0  0  0  0  0  0
   56.3920   83.3544   25.3212 H   0  0  0  0  0  0  0  0  0  0  0  0
  1  2  1  0
  2  3  2  0
  2  4  1  0
  4  5  1  0
  5  6  1  0
  6  7  2  0
  7  8  1  0
  8  9  1  0
  9 10  1  0
  9 11  1  0
 11 12  2  0
 11 13  1  0
 13 14  1  0
 14 15  1  0
 15 16  1  0
 16 17  2  0
 17 18  1  0
 18 19  1  0
 19 20  1  0
 19 21  2  0
 19 22  2  0
 18 23  2  0
 23 24  1  0
  8 25  2  0
 25 26  1  0
 26  5  2  0
 24 15  2  0
  1 27  1  0
  1 28  1  0
  1 29  1  0
  4 30  1  0
  6 31  1  0
  7 32  1  0
  9 33  1  0
 10 34  1  0
 10 35  1  0
 10 36  1  0
 13 37  1  0
 14 38  1  0
 16 39  1  0
 17 40  1  0
 20 41  1  0
 20 42  1  0
 23 43  1  0
 24 44  1  0
 25 45  1  0
 26 46  1  0
M  END
>  <meeko>  (4) 
{"is_sidechain": false}

>  <smiles>  (4) 
CC(=O)Nc1ccc(C(C)C(=O)NNc2ccc(S(N)(=O)=O)cc2)cc1

>  <vina_score>  (4) 
-8.237

$$$$

     RDKit          3D

 57 59  0  0  0  0  0  0  0  0999 V2000
   60.0600   85.4820   34.8980 C   0  0  0  0  0  0  0  0  0  0  0  0
   60.3150   84.3960   33.8820 C   0  0  0  0  0  0  0  0  0  0  0  0
   61.4540   83.9990   33.6650 O   0  0  0  0  0  0  0  0  0  0  0  0
   59.1520   83.9770   33.2640 N   0  0  0  0  0  0  0  0  0  0  0  0
   59.0170   82.9910   32.2640 C   0  0  0  0  0  0  0  0  0  0  0  0
   59.2000   83.2300   30.9020 C   0  0  0  0  0  0  0  0  0  0  0  0
   59.0480   82.1960   29.9710 C   0  0  0  0  0  0  0  0  0  0  0  0
   58.7000   80.9040   30.3860 C   0  0  0  0  0  0  0  0  0  0  0  0
   58.5650   79.7810   29.3850 C   0  0  0  0  0  0  0  0  0  0  0  0
   58.0320   80.3110   28.1510 N   0  0  0  0  0  0  0  0  0  0  0  0
   56.7830   80.0430   27.6300 C   0  0  0  0  0  0  0  0  0  0  0  0
   56.2920   80.8600   26.7360 N   0  0  0  0  0  0  0  0  0  0  0  0
   55.0500   80.6070   26.1970 C   0  0  0  0  0  0  0  0  0  0  0  0
   54.6470   81.5240   25.2700 N   0  0  0  0  0  0  0  0  0  0  0  0
   53.2470   81.7270   24.9200 C   0  0  0  0  0  0  0  0  0  0  0  0
   52.9350   80.9410   23.6290 C   0  0  0  0  0  0  0  0  0  0  0  0
   52.5600   79.5940   23.9120 O   0  0  0  0  0  0  0  0  0  0  0  0
   52.9350   83.2290   24.7540 C   0  0  0  0  0  0  0  0  0  0  0  0
   52.9350   83.9340   25.9950 O   0  0  0  0  0  0  0  0  0  0  0  0
   54.2930   79.5970   26.5250 N   0  0  0  0  0  0  0  0  0  0  0  0
   54.7700   78.7340   27.4550 C   0  0  0  0  0  0  0  0  0  0  0  0
   54.2670   77.5900   28.0410 C   0  0  0  0  0  0  0  0  0  0  0  0
   52.9440   76.9370   27.7800 C   0  0  0  0  0  0  0  0  0  0  0  0
   52.8740   75.5380   28.3950 C   0  0  0  0  0  0  0  0  0  0  0  0
   52.6250   76.8820   26.2840 C   0  0  0  0  0  0  0  0  0  0  0  0
   55.2900   77.1870   28.9370 C   0  0  0  0  0  0  0  0  0  0  0  0
   56.3500   78.0020   28.9280 N   0  0  0  0  0  0  0  0  0  0  0  0
   56.0050   78.9360   28.0110 N   0  0  0  0  0  0  0  0  0  0  0  0
   58.5280   80.6630   31.7550 C   0  0  0  0  0  0  0  0  0  0  0  0
   58.6800   81.6980   32.6820 C   0  0  0  0  0  0  0  0  0  0  0  0
   60.1577   85.0661   35.9116 H   0  0  0  0  0  0  0  0  0  0  0  0
   60.7926   86.2911   34.7615 H   0  0  0  0  0  0  0  0  0  0  0  0
   59.0439   85.8805   34.7615 H   0  0  0  0  0  0  0  0  0  0  0  0
   58.2940   84.4300   33.5540 H   0  0  0  0  0  0  0  0  0  0  0  0
   59.4661   84.2399   30.5566 H   0  0  0  0  0  0  0  0  0  0  0  0
   59.2035   82.4001   28.9014 H   0  0  0  0  0  0  0  0  0  0  0  0
   59.5522   79.3333   29.1979 H   0  0  0  0  0  0  0  0  0  0  0  0
   57.8876   79.0101   29.7811 H   0  0  0  0  0  0  0  0  0  0  0  0
   58.3800   81.2280   27.8930 H   0  0  0  0  0  0  0  0  0  0  0  0
   55.2260   82.3550   25.2960 H   0  0  0  0  0  0  0  0  0  0  0  0
   52.6057   81.3525   25.7315 H   0  0  0  0  0  0  0  0  0  0  0  0
   52.1087   81.4378   23.0994 H   0  0  0  0  0  0  0  0  0  0  0  0
   53.8438   80.9223   23.0095 H   0  0  0  0  0  0  0  0  0  0  0  0
   52.2430   79.5800   24.8340 H   0  0  0  0  0  0  0  0  0  0  0  0
   53.6953   83.6753   24.0962 H   0  0  0  0  0  0  0  0  0  0  0  0
   51.9253   83.3123   24.3256 H   0  0  0  0  0  0  0  0  0  0  0  0
   52.5780   84.8300   25.8110 H   0  0  0  0  0  0  0  0  0  0  0  0
   52.1807   77.5616   28.2670 H   0  0  0  0  0  0  0  0  0  0  0  0
   52.8781   75.6191   29.4920 H   0  0  0  0  0  0  0  0  0  0  0  0
   51.9498   75.0394   28.0676 H   0  0  0  0  0  0  0  0  0  0  0  0
   53.7438   74.9496   28.0676 H   0  0  0  0  0  0  0  0  0  0  0  0
   51.5497   76.6966   26.1450 H   0  0  0  0  0  0  0  0  0  0  0  0
   52.8955   77.8400   25.8160 H   0  0  0  0  0  0  0  0  0  0  0  0
   53.2006   76.0698   25.8160 H   0  0  0  0  0  0  0  0  0  0  0  0
   55.2186   76.2938   29.5751 H   0  0  0  0  0  0  0  0  0  0  0  0
   58.2714   79.6516   32.1032 H   0  0  0  0  0  0  0  0  0  0  0  0
   58.5331   81.4942   33.7529 H   0  0  0  0  0  0  0  0  0  0  0  0
  1  2  1  0
  2  3  2  0
  2  4  1  0
  4  5  1  0
  5  6  1  0
  6  7  2  0
  7  8  1  0
  8  9  1  0
  9 10  1  0
 10 11  1  0
 11 12  2  0
 12 13  1  0
 13 14  1  0
 14 15  1  0
 15 16  1  0
 16 17  1  0
 15 18  1  0
 18 19  1  0
 13 20  2  0
 20 21  1  0
 21 22  2  0
 22 23  1  0
 23 24  1  0
 23 25  1  0
 22 26  1  0
 26 27  2  0
 27 28  1  0
  8 29  2  0
 29 30  1  0
 30  5  2  0
 28 11  1  0
 28 21  1  0
  1 31  1  0
  1 32  1  0
  1 33  1  0
  4 34  1  0
  6 35  1  0
  7 36  1  0
  9 37  1  0
  9 38  1  0
 10 39  1  0
 14 40  1  0
 15 41  1  0
 16 42  1  0
 16 43  1  0
 17 44  1  0
 18 45  1  0
 18 46  1  0
 19 47  1  0
 23 48  1  0
 24 49  1  0
 24 50  1  0
 24 51  1  0
 25 52  1  0
 25 53  1  0
 25 54  1  0
 26 55  1  0
 29 56  1  0
 30 57  1  0
M  END
>  <meeko>  (5) 
{"is_sidechain": false}

>  <smiles>  (5) 
CC(=O)Nc1ccc(CNc2nc(NC(CO)CO)nc3c(C(C)C)cnn23)cc1

>  <vina_score>  (5) 
-8.509

$$$$

     RDKit          3D

 49 51  0  0  0  0  0  0  0  0999 V2000
   53.0380   83.5480   25.0200 C   0  0  0  0  0  0  0  0  0  0  0  0
   53.7730   82.4510   25.8090 C   0  0  0  0  0  0  0  0  0  0  0  0
   53.3090   82.4800   27.2770 C   0  0  0  0  0  0  0  0  0  0  0  0
   55.2840   82.7440   25.7670 C   0  0  0  0  0  0  0  0  0  0  0  0
   53.4710   81.1080   25.2130 C   0  0  0  0  0  0  0  0  0  0  0  0
   53.1140   80.6410   23.9670 C   0  0  0  0  0  0  0  0  0  0  0  0
   52.9730   79.2780   23.9910 N   0  0  0  0  0  0  0  0  0  0  0  0
   53.2640   78.9530   25.2360 C   0  0  0  0  0  0  0  0  0  0  0  0
   53.3110   77.6040   25.8570 C   0  0  0  0  0  0  0  0  0  0  0  0
   52.8300   77.6100   27.6140 S   0  0  0  0  0  0  0  0  0  0  0  0
   54.3930   77.7320   28.3950 C   0  0  0  0  0  0  0  0  0  0  0  0
   54.9080   76.8750   29.3400 C   0  0  0  0  0  0  0  0  0  0  0  0
   56.1770   77.1780   29.7930 N   0  0  0  0  0  0  0  0  0  0  0  0
   56.6350   78.2540   29.1930 C   0  0  0  0  0  0  0  0  0  0  0  0
   57.8630   78.7330   29.5150 N   0  0  0  0  0  0  0  0  0  0  0  0
   58.1830   80.1170   29.8530 C   0  0  2  0  0  0  0  0  0  0  0  0
   59.1900   80.7420   28.8740 C   0  0  0  0  0  0  0  0  0  0  0  0
   60.0620   81.8200   29.5260 C   0  0  0  0  0  0  0  0  0  0  0  0
   59.2810   82.6430   30.5460 C   0  0  1  0  0  0  0  0  0  0  0  0
   58.1740   83.2630   29.8930 O   0  0  0  0  0  0  0  0  0  0  0  0
   58.7400   81.7840   31.6940 C   0  0  0  0  0  0  0  0  0  0  0  0
   58.5630   80.3050   31.3250 C   0  0  0  0  0  0  0  0  0  0  0  0
   55.5380   78.9500   28.0570 S   0  0  0  0  0  0  0  0  0  0  0  0
   53.5550   80.0200   26.0430 O   0  0  0  0  0  0  0  0  0  0  0  0
   52.5667   84.2514   25.7222 H   0  0  0  0  0  0  0  0  0  0  0  0
   53.7570   84.0885   24.3868 H   0  0  0  0  0  0  0  0  0  0  0  0
   52.2647   83.0886   24.3868 H   0  0  0  0  0  0  0  0  0  0  0  0
   54.1853   82.4252   27.9397 H   0  0  0  0  0  0  0  0  0  0  0  0
   52.7612   83.4141   27.4700 H   0  0  0  0  0  0  0  0  0  0  0  0
   52.6491   81.6214   27.4700 H   0  0  0  0  0  0  0  0  0  0  0  0
   55.6716   82.8192   26.7937 H   0  0  0  0  0  0  0  0  0  0  0  0
   55.8009   81.9294   25.2386 H   0  0  0  0  0  0  0  0  0  0  0  0
   55.4590   83.6928   25.2386 H   0  0  0  0  0  0  0  0  0  0  0  0
   52.9635   81.2725   23.0790 H   0  0  0  0  0  0  0  0  0  0  0  0
   52.6251   76.9418   25.3084 H   0  0  0  0  0  0  0  0  0  0  0  0
   54.3523   77.2537   25.8029 H   0  0  0  0  0  0  0  0  0  0  0  0
   54.3457   76.0052   29.7106 H   0  0  0  0  0  0  0  0  0  0  0  0
   58.5870   78.2920   28.9530 H   0  0  0  0  0  0  0  0  0  0  0  0
   57.2509   80.6873   29.7268 H   0  0  0  0  0  0  0  0  0  0  0  0
   59.8445   79.9467   28.4878 H   0  0  0  0  0  0  0  0  0  0  0  0
   58.6144   81.2236   28.0698 H   0  0  0  0  0  0  0  0  0  0  0  0
   60.9080   81.3340   30.0339 H   0  0  0  0  0  0  0  0  0  0  0  0
   60.4120   82.4999   28.7353 H   0  0  0  0  0  0  0  0  0  0  0  0
   59.9716   83.3880   30.9681 H   0  0  0  0  0  0  0  0  0  0  0  0
   57.3710   82.7770   30.1520 H   0  0  0  0  0  0  0  0  0  0  0  0
   59.4420   81.8500   32.5383 H   0  0  0  0  0  0  0  0  0  0  0  0
   57.7432   82.1746   31.9467 H   0  0  0  0  0  0  0  0  0  0  0  0
   59.5084   79.7765   31.5170 H   0  0  0  0  0  0  0  0  0  0  0  0
   57.7455   79.8994   31.9391 H   0  0  0  0  0  0  0  0  0  0  0  0
  1  2  1  0
  2  3  1  0
  2  4  1  0
  2  5  1  0
  5  6  2  0
  6  7  1  0
  7  8  2  0
  8  9  1  0
  9 10  1  0
 10 11  1  0
 11 12  2  0
 12 13  1  0
 13 14  2  0
 14 15  1  0
 15 16  1  0
 16 17  1  0
 17 18  1  0
 18 19  1  0
 19 20  1  0
 19 21  1  0
 21 22  1  0
 14 23  1  0
  8 24  1  0
 24  5  1  0
 23 11  1  0
 22 16  1  0
  1 25  1  0
  1 26  1  0
  1 27  1  0
  3 28  1  0
  3 29  1  0
  3 30  1  0
  4 31  1  0
  4 32  1  0
  4 33  1  0
  6 34  1  0
  9 35  1  0
  9 36  1  0
 12 37  1  0
 15 38  1  0
 16 39  1  6
 17 40  1  0
 17 41  1  0
 18 42  1  0
 18 43  1  0
 19 44  1  6
 20 45  1  0
 21 46  1  0
 21 47  1  0
 22 48  1  0
 22 49  1  0
M  END
>  <meeko>  (6) 
{"is_sidechain": false}

>  <smiles>  (6) 
CC(C)(C)c1cnc(CSc2cnc(N[C@H]3CC[C@H](O)CC3)s2)o1

>  <vina_score>  (6) 
-7.414

$$$$

     RDKit          3D

 44 45  0  0  0  0  0  0  0  0999 V2000
   58.1850   80.9820   32.4740 C   0  0  0  0  0  0  0  0  0  0  0  0
   59.3040   80.7210   31.4640 C   0  0  0  0  0  0  0  0  0  0  0  0
   59.5050   81.9580   30.5860 C   0  0  0  0  0  0  0  0  0  0  0  0
   58.9320   79.5370   30.6850 N   0  0  0  0  0  0  0  0  0  0  0  0
   58.8870   79.7830   29.2460 C   0  0  0  0  0  0  0  0  0  0  0  0
   57.5140   79.4720   28.6950 C   0  0  0  0  0  0  0  0  0  0  0  0
   57.0150   80.1560   27.5800 C   0  0  0  0  0  0  0  0  0  0  0  0
   55.7450   79.8650   27.0770 C   0  0  0  0  0  0  0  0  0  0  0  0
   54.9430   78.8880   27.6840 C   0  0  0  0  0  0  0  0  0  0  0  0
   53.5740   78.5680   27.1340 C   0  0  0  0  0  0  0  0  0  0  0  0
   53.2010   79.3990   25.9270 C   0  0  0  0  0  0  0  0  0  0  0  0
   53.3090   78.8650   24.6330 C   0  0  0  0  0  0  0  0  0  0  0  0
   52.9480   79.6260   23.5200 C   0  0  0  0  0  0  0  0  0  0  0  0
   52.4680   80.9250   23.7010 C   0  0  0  0  0  0  0  0  0  0  0  0
   52.0030   81.8840   22.2850 S   0  0  0  0  0  0  0  0  0  0  0  0
   50.4240   81.3570   22.0300 N   0  0  0  0  0  0  0  0  0  0  0  0
   52.8020   81.4600   21.1600 O   0  0  0  0  0  0  0  0  0  0  0  0
   51.8910   83.2690   22.6830 O   0  0  0  0  0  0  0  0  0  0  0  0
   52.3640   81.4770   24.9790 C   0  0  0  0  0  0  0  0  0  0  0  0
   52.7250   80.7110   26.0880 C   0  0  0  0  0  0  0  0  0  0  0  0
   55.4410   78.2050   28.8020 C   0  0  0  0  0  0  0  0  0  0  0  0
   56.7120   78.4960   29.3020 C   0  0  0  0  0  0  0  0  0  0  0  0
   58.5836   80.8890   33.4950 H   0  0  0  0  0  0  0  0  0  0  0  0
   57.7874   81.9970   32.3266 H   0  0  0  0  0  0  0  0  0  0  0  0
   57.3794   80.2477   32.3266 H   0  0  0  0  0  0  0  0  0  0  0  0
   60.2644   80.5287   31.9647 H   0  0  0  0  0  0  0  0  0  0  0  0
   59.6486   82.8418   31.2250 H   0  0  0  0  0  0  0  0  0  0  0  0
   60.3920   81.8167   29.9509 H   0  0  0  0  0  0  0  0  0  0  0  0
   58.6189   82.1048   29.9509 H   0  0  0  0  0  0  0  0  0  0  0  0
   58.0300   79.1770   30.9920 H   0  0  0  0  0  0  0  0  0  0  0  0
   59.1232   80.8398   29.0525 H   0  0  0  0  0  0  0  0  0  0  0  0
   59.6229   79.1316   28.7520 H   0  0  0  0  0  0  0  0  0  0  0  0
   57.6288   80.9297   27.0957 H   0  0  0  0  0  0  0  0  0  0  0  0
   55.3704   80.4073   26.1964 H   0  0  0  0  0  0  0  0  0  0  0  0
   53.5536   77.5066   26.8460 H   0  0  0  0  0  0  0  0  0  0  0  0
   52.8449   78.7992   27.9246 H   0  0  0  0  0  0  0  0  0  0  0  0
   53.6810   77.8390   24.4953 H   0  0  0  0  0  0  0  0  0  0  0  0
   53.0409   79.2057   22.5077 H   0  0  0  0  0  0  0  0  0  0  0  0
   50.4140   80.7290   21.2240 H   0  0  0  0  0  0  0  0  0  0  0  0
   49.7600   82.1240   21.9200 H   0  0  0  0  0  0  0  0  0  0  0  0
   52.0006   82.5069   25.1106 H   0  0  0  0  0  0  0  0  0  0  0  0
   52.6361   81.1383   27.0977 H   0  0  0  0  0  0  0  0  0  0  0  0
   54.8261   77.4340   29.2892 H   0  0  0  0  0  0  0  0  0  0  0  0
   57.0878   77.9533   30.1819 H   0  0  0  0  0  0  0  0  0  0  0  0
  1  2  1  0
  2  3  1  0
  2  4  1  0
  4  5  1  0
  5  6  1  0
  6  7  1  0
  7  8  2  0
  8  9  1  0
  9 10  1  0
 10 11  1  0
 11 12  1  0
 12 13  2  0
 13 14  1  0
 14 15  1  0
 15 16  1  0
 15 17  2  0
 15 18  2  0
 14 19  2  0
 19 20  1  0
  9 21  2  0
 21 22  1  0
 22  6  2  0
 20 11  2  0
  1 23  1  0
  1 24  1  0
  1 25  1  0
  2 26  1  0
  3 27  1  0
  3 28  1  0
  3 29  1  0
  4 30  1  0
  5 31  1  0
  5 32  1  0
  7 33  1  0
  8 34  1  0
 10 35  1  0
 10 36  1  0
 12 37  1  0
 13 38  1  0
 16 39  1  0
 16 40  1  0
 19 41  1  0
 20 42  1  0
 21 43  1  0
 22 44  1  0
M  END
>  <meeko>  (7) 
{"is_sidechain": false}

>  <smiles>  (7) 
CC(C)NCc1ccc(Cc2ccc(S(N)(=O)=O)cc2)cc1

>  <vina_score>  (7) 
-8.457

$$$$

     RDKit          3D

 38 39  0  0  0  0  0  0  0  0999 V2000
   59.5560   80.6290   29.2280 C   0  0  0  0  0  0  0  0  0  0  0  0
   58.1960   80.3570   29.8730 C   0  0  0  0  0  0  0  0  0  0  0  0
   58.3790   79.9920   31.3460 C   0  0  0  0  0  0  0  0  0  0  0  0
   57.5590   79.2600   29.1460 N   0  0  0  0  0  0  0  0  0  0  0  0
   56.6450   79.4750   28.1140 C   0  0  0  0  0  0  0  0  0  0  0  0
   56.8430   80.5760   27.2700 C   0  0  0  0  0  0  0  0  0  0  0  0
   55.9350   80.8940   26.2510 C   0  0  0  0  0  0  0  0  0  0  0  0
   54.7780   80.1320   26.0550 C   0  0  0  0  0  0  0  0  0  0  0  0
   53.8190   80.4580   24.9870 C   0  0  0  0  0  0  0  0  0  0  0  0
   53.4220   81.7870   24.7530 C   0  0  0  0  0  0  0  0  0  0  0  0
   52.5120   82.1010   23.7390 C   0  0  0  0  0  0  0  0  0  0  0  0
   51.9820   81.0800   22.9500 C   0  0  0  0  0  0  0  0  0  0  0  0
   50.8560   81.4760   21.6450 S   0  0  0  0  0  0  0  0  0  0  0  0
   49.3890   80.9820   22.2910 N   0  0  0  0  0  0  0  0  0  0  0  0
   50.7690   82.9110   21.5110 O   0  0  0  0  0  0  0  0  0  0  0  0
   51.1060   80.6070   20.5190 O   0  0  0  0  0  0  0  0  0  0  0  0
   52.3690   79.7540   23.1520 C   0  0  0  0  0  0  0  0  0  0  0  0
   53.2790   79.4490   24.1680 C   0  0  0  0  0  0  0  0  0  0  0  0
   54.5580   79.0530   26.9220 C   0  0  0  0  0  0  0  0  0  0  0  0
   55.4700   78.7420   27.9420 C   0  0  0  0  0  0  0  0  0  0  0  0
   60.3108   80.7800   30.0138 H   0  0  0  0  0  0  0  0  0  0  0  0
   59.8437   79.7706   28.6032 H   0  0  0  0  0  0  0  0  0  0  0  0
   59.4915   81.5320   28.6032 H   0  0  0  0  0  0  0  0  0  0  0  0
   57.5619   81.2545   29.8235 H   0  0  0  0  0  0  0  0  0  0  0  0
   57.9750   80.7978   31.9764 H   0  0  0  0  0  0  0  0  0  0  0  0
   57.8440   79.0552   31.5608 H   0  0  0  0  0  0  0  0  0  0  0  0
   59.4497   79.8603   31.5608 H   0  0  0  0  0  0  0  0  0  0  0  0
   57.2810   78.4910   29.7490 H   0  0  0  0  0  0  0  0  0  0  0  0
   57.7334   81.2064   27.4108 H   0  0  0  0  0  0  0  0  0  0  0  0
   56.1347   81.7548   25.5960 H   0  0  0  0  0  0  0  0  0  0  0  0
   53.8343   82.5927   25.3782 H   0  0  0  0  0  0  0  0  0  0  0  0
   52.2160   83.1460   23.5646 H   0  0  0  0  0  0  0  0  0  0  0  0
   49.3420   81.2370   23.2790 H   0  0  0  0  0  0  0  0  0  0  0  0
   49.2500   79.9860   22.1150 H   0  0  0  0  0  0  0  0  0  0  0  0
   51.9606   78.9548   22.5160 H   0  0  0  0  0  0  0  0  0  0  0  0
   53.5781   78.4029   24.3302 H   0  0  0  0  0  0  0  0  0  0  0  0
   53.6537   78.4386   26.8006 H   0  0  0  0  0  0  0  0  0  0  0  0
   55.2543   77.9031   28.6200 H   0  0  0  0  0  0  0  0  0  0  0  0
  1  2  1  0
  2  3  1  0
  2  4  1  0
  4  5  1  0
  5  6  1  0
  6  7  2  0
  7  8  1  0
  8  9  1  0
  9 10  1  0
 10 11  2  0
 11 12  1  0
 12 13  1  0
 13 14  1  0
 13 15  2  0
 13 16  2  0
 12 17  2  0
 17 18  1  0
  8 19  2  0
 19 20  1  0
 20  5  2  0
 18  9  2  0
  1 21  1  0
  1 22  1  0
  1 23  1  0
  2 24  1  0
  3 25  1  0
  3 26  1  0
  3 27  1  0
  4 28  1  0
  6 29  1  0
  7 30  1  0
 10 31  1  0
 11 32  1  0
 14 33  1  0
 14 34  1  0
 17 35  1  0
 18 36  1  0
 19 37  1  0
 20 38  1  0
M  END
>  <meeko>  (8) 
{"is_sidechain": false}

>  <smiles>  (8) 
CC(C)Nc1ccc(-c2ccc(S(N)(=O)=O)cc2)cc1

>  <vina_score>  (8) 
-7.714

$$$$

     RDKit          3D

 41 42  0  0  0  0  0  0  0  0999 V2000
   59.6740   80.9820   29.2180 C   0  0  0  0  0  0  0  0  0  0  0  0
   58.9240   79.8580   29.9380 C   0  0  0  0  0  0  0  0  0  0  0  0
   58.6460   80.2320   31.3950 C   0  0  0  0  0  0  0  0  0  0  0  0
   57.6490   79.4820   29.2050 C   0  0  0  0  0  0  0  0  0  0  0  0
   56.7250   78.5770   29.7480 C   0  0  0  0  0  0  0  0  0  0  0  0
   55.5550   78.2450   29.0560 C   0  0  0  0  0  0  0  0  0  0  0  0
   55.2870   78.8070   27.8020 C   0  0  0  0  0  0  0  0  0  0  0  0
   54.0200   78.4640   27.0540 C   0  0  0  0  0  0  0  0  0  0  0  0
   53.2120   79.6650   26.9020 N   0  0  0  0  0  0  0  0  0  0  0  0
   53.0120   80.2180   25.6370 C   0  0  0  0  0  0  0  0  0  0  0  0
   52.7410   81.5760   25.4180 C   0  0  0  0  0  0  0  0  0  0  0  0
   52.4770   82.0660   24.1340 C   0  0  0  0  0  0  0  0  0  0  0  0
   52.4590   81.1890   23.0510 C   0  0  0  0  0  0  0  0  0  0  0  0
   52.0880   81.7970   21.4340 S   0  0  0  0  0  0  0  0  0  0  0  0
   51.0600   80.6070   20.8430 N   0  0  0  0  0  0  0  0  0  0  0  0
   53.2760   81.7330   20.6140 O   0  0  0  0  0  0  0  0  0  0  0  0
   51.2870   82.9930   21.5430 O   0  0  0  0  0  0  0  0  0  0  0  0
   52.6710   79.8260   23.2460 C   0  0  0  0  0  0  0  0  0  0  0  0
   52.9350   79.3510   24.5350 C   0  0  0  0  0  0  0  0  0  0  0  0
   56.2030   79.7180   27.2620 C   0  0  0  0  0  0  0  0  0  0  0  0
   57.3710   80.0490   27.9540 C   0  0  0  0  0  0  0  0  0  0  0  0
   60.1243   81.6568   29.9608 H   0  0  0  0  0  0  0  0  0  0  0  0
   60.4654   80.5498   28.5879 H   0  0  0  0  0  0  0  0  0  0  0  0
   58.9712   81.5468   28.5879 H   0  0  0  0  0  0  0  0  0  0  0  0
   59.5712   78.9685   29.9388 H   0  0  0  0  0  0  0  0  0  0  0  0
   59.1686   79.5289   32.0602 H   0  0  0  0  0  0  0  0  0  0  0  0
   59.0055   81.2538   31.5863 H   0  0  0  0  0  0  0  0  0  0  0  0
   57.5639   80.1822   31.5863 H   0  0  0  0  0  0  0  0  0  0  0  0
   56.9226   78.1226   30.7301 H   0  0  0  0  0  0  0  0  0  0  0  0
   54.8402   77.5369   29.5007 H   0  0  0  0  0  0  0  0  0  0  0  0
   54.2757   78.0649   26.0614 H   0  0  0  0  0  0  0  0  0  0  0  0
   53.4534   77.7069   27.6159 H   0  0  0  0  0  0  0  0  0  0  0  0
   52.3550   79.6240   27.4500 H   0  0  0  0  0  0  0  0  0  0  0  0
   52.7358   82.2696   26.2718 H   0  0  0  0  0  0  0  0  0  0  0  0
   52.2846   83.1381   23.9803 H   0  0  0  0  0  0  0  0  0  0  0  0
   50.1070   80.9670   20.7980 H   0  0  0  0  0  0  0  0  0  0  0  0
   51.1560   79.7600   21.4030 H   0  0  0  0  0  0  0  0  0  0  0  0
   52.6312   79.1303   22.3949 H   0  0  0  0  0  0  0  0  0  0  0  0
   53.0859   78.2724   24.6891 H   0  0  0  0  0  0  0  0  0  0  0  0
   56.0012   80.1777   26.2833 H   0  0  0  0  0  0  0  0  0  0  0  0
   58.0808   80.7633   27.5114 H   0  0  0  0  0  0  0  0  0  0  0  0
  1  2  1  0
  2  3  1  0
  2  4  1  0
  4  5  1  0
  5  6  2  0
  6  7  1  0
  7  8  1  0
  8  9  1  0
  9 10  1  0
 10 11  1  0
 11 12  2  0
 12 13  1  0
 13 14  1  0
 14 15  1  0
 14 16  2  0
 14 17  2  0
 13 18  2  0
 18 19  1  0
  7 20  2  0
 20 21  1  0
 21  4  2  0
 19 10  2  0
  1 22  1  0
  1 23  1  0
  1 24  1  0
  2 25  1  0
  3 26  1  0
  3 27  1  0
  3 28  1  0
  5 29  1  0
  6 30  1  0
  8 31  1  0
  8 32  1  0
  9 33  1  0
 11 34  1  0
 12 35  1  0
 15 36  1  0
 15 37  1  0
 18 38  1  0
 19 39  1  0
 20 40  1  0
 21 41  1  0
M  END
>  <meeko>  (9) 
{"is_sidechain": false}

>  <smiles>  (9) 
CC(C)c1ccc(CNc2ccc(S(N)(=O)=O)cc2)cc1

>  <vina_score>  (9) 
-7.891

$$$$

     RDKit          3D

 55 57  0  0  0  0  0  0  0  0999 V2000
   51.1930   76.5110   28.5260 C   0  0  0  0  0  0  0  0  0  0  0  0
   52.3510   75.6500   28.0170 C   0  0  0  0  0  0  0  0  0  0  0  0
   52.1920   75.3570   26.5250 C   0  0  0  0  0  0  0  0  0  0  0  0
   53.6850   76.2590   28.3320 C   0  0  0  0  0  0  0  0  0  0  0  0
   54.7620   75.6420   29.0060 C   0  0  0  0  0  0  0  0  0  0  0  0
   55.8250   76.4350   29.1450 N   0  0  0  0  0  0  0  0  0  0  0  0
   55.4520   77.6000   28.5380 N   0  0  0  0  0  0  0  0  0  0  0  0
   56.2230   78.7830   28.4180 C   0  0  0  0  0  0  0  0  0  0  0  0
   57.5140   78.7600   28.9550 N   0  0  0  0  0  0  0  0  0  0  0  0
   58.5100   79.7960   28.7540 C   0  0  0  0  0  0  0  0  0  0  0  0
   58.5480   80.7090   29.9540 C   0  0  0  0  0  0  0  0  0  0  0  0
   58.9350   82.0500   29.8120 C   0  0  0  0  0  0  0  0  0  0  0  0
   58.9770   82.8980   30.9190 C   0  0  0  0  0  0  0  0  0  0  0  0
   58.6360   82.4140   32.1800 C   0  0  0  0  0  0  0  0  0  0  0  0
   58.2590   81.0820   32.3360 C   0  0  0  0  0  0  0  0  0  0  0  0
   58.2170   80.2320   31.2290 C   0  0  0  0  0  0  0  0  0  0  0  0
   55.6590   79.8340   27.7980 C   0  0  0  0  0  0  0  0  0  0  0  0
   54.2640   79.6780   27.2690 C   0  0  0  0  0  0  0  0  0  0  0  0
   53.6400   80.7140   26.6140 N   0  0  0  0  0  0  0  0  0  0  0  0
   54.2730   81.4360   25.5030 C   0  0  1  0  0  0  0  0  0  0  0  0
   53.5540   81.0780   24.1830 C   0  0  0  0  0  0  0  0  0  0  0  0
   53.6850   79.6920   23.8660 O   0  0  0  0  0  0  0  0  0  0  0  0
   54.3350   82.9490   25.8350 C   0  0  1  0  0  0  0  0  0  0  0  0
   53.1620   83.3470   26.5720 O   0  0  0  0  0  0  0  0  0  0  0  0
   55.5550   83.3980   26.6450 C   0  0  0  0  0  0  0  0  0  0  0  0
   56.5910   83.8560   25.7700 O   0  0  0  0  0  0  0  0  0  0  0  0
   53.5570   78.5850   27.4110 N   0  0  0  0  0  0  0  0  0  0  0  0
   54.1490   77.5300   28.0440 C   0  0  0  0  0  0  0  0  0  0  0  0
   51.1924   76.5115   29.6260 H   0  0  0  0  0  0  0  0  0  0  0  0
   51.3130   77.5410   28.1590 H   0  0  0  0  0  0  0  0  0  0  0  0
   50.2412   76.0995   28.1590 H   0  0  0  0  0  0  0  0  0  0  0  0
   52.3157   74.6898   28.5524 H   0  0  0  0  0  0  0  0  0  0  0  0
   51.6711   74.3971   26.3933 H   0  0  0  0  0  0  0  0  0  0  0  0
   51.6058   76.1599   26.0541 H   0  0  0  0  0  0  0  0  0  0  0  0
   53.1846   75.3031   26.0541 H   0  0  0  0  0  0  0  0  0  0  0  0
   54.7273   74.6081   29.3798 H   0  0  0  0  0  0  0  0  0  0  0  0
   57.4800   78.4240   29.9260 H   0  0  0  0  0  0  0  0  0  0  0  0
   59.4976   79.3313   28.6174 H   0  0  0  0  0  0  0  0  0  0  0  0
   58.2489   80.3819   27.8604 H   0  0  0  0  0  0  0  0  0  0  0  0
   59.2078   82.4363   28.8188 H   0  0  0  0  0  0  0  0  0  0  0  0
   59.2793   83.9485   30.7962 H   0  0  0  0  0  0  0  0  0  0  0  0
   58.6644   83.0835   33.0524 H   0  0  0  0  0  0  0  0  0  0  0  0
   57.9940   80.6993   33.3327 H   0  0  0  0  0  0  0  0  0  0  0  0
   57.9219   79.1803   31.3589 H   0  0  0  0  0  0  0  0  0  0  0  0
   56.2051   80.7818   27.6818 H   0  0  0  0  0  0  0  0  0  0  0  0
   52.7020   80.4070   26.3280 H   0  0  0  0  0  0  0  0  0  0  0  0
   55.3192   81.1274   25.3607 H   0  0  0  0  0  0  0  0  0  0  0  0
   52.4858   81.3210   24.2823 H   0  0  0  0  0  0  0  0  0  0  0  0
   54.0183   81.6591   23.3726 H   0  0  0  0  0  0  0  0  0  0  0  0
   52.8080   79.2820   24.0410 H   0  0  0  0  0  0  0  0  0  0  0  0
   54.4033   83.4340   24.8500 H   0  0  0  0  0  0  0  0  0  0  0  0
   52.7450   82.5360   26.9180 H   0  0  0  0  0  0  0  0  0  0  0  0
   55.2617   84.2159   27.3195 H   0  0  0  0  0  0  0  0  0  0  0  0
   55.9308   82.5447   27.2286 H   0  0  0  0  0  0  0  0  0  0  0  0
   57.1140   84.4820   26.3140 H   0  0  0  0  0  0  0  0  0  0  0  0
  1  2  1  0
  2  3  1  0
  2  4  1  0
  4  5  1  0
  5  6  2  0
  6  7  1  0
  7  8  1  0
  8  9  1  0
  9 10  1  0
 10 11  1  0
 11 12  2  0
 12 13  1  0
 13 14  2  0
 14 15  1  0
 15 16  2  0
  8 17  2  0
 17 18  1  0
 18 19  1  0
 19 20  1  0
 20 21  1  0
 21 22  1  0
 20 23  1  0
 23 24  1  0
 23 25  1  0
 25 26  1  0
 18 27  2  0
 27 28  1  0
 28  4  2  0
 28  7  1  0
 16 11  1  0
  1 29  1  0
  1 30  1  0
  1 31  1  0
  2 32  1  0
  3 33  1  0
  3 34  1  0
  3 35  1  0
  5 36  1  0
  9 37  1  0
 10 38  1  0
 10 39  1  0
 12 40  1  0
 13 41  1  0
 14 42  1  0
 15 43  1  0
 16 44  1  0
 17 45  1  0
 19 46  1  0
 20 47  1  6
 21 48  1  0
 21 49  1  0
 22 50  1  0
 23 51  1  6
 24 52  1  0
 25 53  1  0
 25 54  1  0
 26 55  1  0
M  END
>  <meeko>  (10) 
{"is_sidechain": false}

>  <smiles>  (10) 
CC(C)c1cnn2c(NCc3ccccc3)cc(N[C@@H](CO)[C@@H](O)CO)nc12

>  <vina_score>  (10) 
-7.925

$$$$

     RDKit          3D

 73 76  0  0  0  0  0  0  0  0999 V2000
   58.6620   85.0290   31.3040 C   0  0  0  0  0  0  0  0  0  0  0  0
   59.1350   84.1730   32.4720 C   0  0  0  0  0  0  0  0  0  0  0  0
   60.1760   83.1130   32.0580 C   0  0  0  0  0  0  0  0  0  0  0  0
   60.8780   82.5620   33.2970 C   0  0  0  0  0  0  0  0  0  0  0  0
   60.3410   82.4290   34.3930 O   0  0  0  0  0  0  0  0  0  0  0  0
   62.3210   82.1100   33.0950 C   0  0  0  0  0  0  0  0  0  0  0  0
   62.6880   81.1080   33.7020 O   0  0  0  0  0  0  0  0  0  0  0  0
   63.1490   82.8290   32.1550 C   0  0  0  0  0  0  0  0  0  0  0  0
   63.6540   82.3010   30.9840 C   0  0  0  0  0  0  0  0  0  0  0  0
   64.3430   83.2320   30.2700 N   0  0  0  0  0  0  0  0  0  0  0  0
   64.3120   84.3360   30.9870 C   0  0  0  0  0  0  0  0  0  0  0  0
   64.9010   85.6220   30.5300 C   0  0  0  0  0  0  0  0  0  0  0  0
   63.6590   84.1220   32.1900 N   0  0  0  0  0  0  0  0  0  0  0  0
   63.6310   85.0220   33.3440 C   0  0  0  0  0  0  0  0  0  0  0  0
   63.9950   84.3510   34.6660 C   0  0  0  0  0  0  0  0  0  0  0  0
   62.3270   85.8200   33.4360 C   0  0  0  0  0  0  0  0  0  0  0  0
   59.6270   81.9570   31.2380 C   0  0  0  0  0  0  0  0  0  0  0  0
   59.8990   81.8150   29.8730 C   0  0  0  0  0  0  0  0  0  0  0  0
   59.3150   80.7790   29.1350 C   0  0  0  0  0  0  0  0  0  0  0  0
   58.4420   79.8550   29.7300 C   0  0  0  0  0  0  0  0  0  0  0  0
   57.8610   78.8710   28.9230 N   0  0  0  0  0  0  0  0  0  0  0  0
   56.5590   78.4190   28.7430 C   0  0  0  0  0  0  0  0  0  0  0  0
   55.9700   77.5810   29.6110 N   0  0  0  0  0  0  0  0  0  0  0  0
   54.6910   77.2270   29.3640 C   0  0  0  0  0  0  0  0  0  0  0  0
   53.9830   77.6720   28.2820 C   0  0  0  0  0  0  0  0  0  0  0  0
   52.7160   77.2900   28.0810 F   0  0  0  0  0  0  0  0  0  0  0  0
   54.6630   78.5140   27.4300 C   0  0  0  0  0  0  0  0  0  0  0  0
   54.0390   79.0990   26.2460 C   0  0  0  0  0  0  0  0  0  0  0  0
   53.4760   78.4570   25.1590 C   0  0  0  0  0  0  0  0  0  0  0  0
   52.9420   79.3420   24.2740 N   0  0  0  0  0  0  0  0  0  0  0  0
   53.1640   80.5380   24.7760 C   0  0  0  0  0  0  0  0  0  0  0  0
   52.7080   81.7920   24.1210 C   0  0  0  0  0  0  0  0  0  0  0  0
   53.8790   80.4530   25.9590 N   0  0  0  0  0  0  0  0  0  0  0  0
   54.4140   81.5560   26.7600 C   0  0  0  0  0  0  0  0  0  0  0  0
   53.3100   82.4830   27.2690 C   0  0  0  0  0  0  0  0  0  0  0  0
   55.5420   82.3400   26.0820 C   0  0  0  0  0  0  0  0  0  0  0  0
   55.9400   78.9000   27.6500 N   0  0  0  0  0  0  0  0  0  0  0  0
   58.1670   80.0120   31.0890 C   0  0  0  0  0  0  0  0  0  0  0  0
   58.7510   81.0430   31.8360 C   0  0  0  0  0  0  0  0  0  0  0  0
   58.1636   85.9310   31.6887 H   0  0  0  0  0  0  0  0  0  0  0  0
   59.5266   85.3214   30.6900 H   0  0  0  0  0  0  0  0  0  0  0  0
   57.9543   84.4527   30.6900 H   0  0  0  0  0  0  0  0  0  0  0  0
   59.5865   84.8311   33.2290 H   0  0  0  0  0  0  0  0  0  0  0  0
   58.2579   83.6377   32.8647 H   0  0  0  0  0  0  0  0  0  0  0  0
   60.8793   83.6427   31.3987 H   0  0  0  0  0  0  0  0  0  0  0  0
   63.5164   81.2566   30.6672 H   0  0  0  0  0  0  0  0  0  0  0  0
   65.1791   86.2291   31.4041 H   0  0  0  0  0  0  0  0  0  0  0  0
   65.7965   85.4203   29.9238 H   0  0  0  0  0  0  0  0  0  0  0  0
   64.1633   86.1683   29.9238 H   0  0  0  0  0  0  0  0  0  0  0  0
   64.4375   85.7463   33.1571 H   0  0  0  0  0  0  0  0  0  0  0  0
   63.6542   84.9793   35.5021 H   0  0  0  0  0  0  0  0  0  0  0  0
   63.5071   83.3668   34.7242 H   0  0  0  0  0  0  0  0  0  0  0  0
   65.0860   84.2234   34.7242 H   0  0  0  0  0  0  0  0  0  0  0  0
   62.0680   85.9785   34.4932 H   0  0  0  0  0  0  0  0  0  0  0  0
   62.4571   86.7934   32.9404 H   0  0  0  0  0  0  0  0  0  0  0  0
   61.5194   85.2612   32.9404 H   0  0  0  0  0  0  0  0  0  0  0  0
   60.5776   82.5236   29.3756 H   0  0  0  0  0  0  0  0  0  0  0  0
   59.5457   80.6868   28.0634 H   0  0  0  0  0  0  0  0  0  0  0  0
   58.4880   78.3080   28.3680 H   0  0  0  0  0  0  0  0  0  0  0  0
   54.1927   76.5456   30.0693 H   0  0  0  0  0  0  0  0  0  0  0  0
   53.4614   77.3652   25.0258 H   0  0  0  0  0  0  0  0  0  0  0  0
   52.4393   82.5308   24.8904 H   0  0  0  0  0  0  0  0  0  0  0  0
   53.5177   82.1935   23.4939 H   0  0  0  0  0  0  0  0  0  0  0  0
   51.8295   81.5797   23.4939 H   0  0  0  0  0  0  0  0  0  0  0  0
   54.8798   81.0719   27.6310 H   0  0  0  0  0  0  0  0  0  0  0  0
   53.3097   82.4833   28.3690 H   0  0  0  0  0  0  0  0  0  0  0  0
   53.4905   83.5042   26.9021 H   0  0  0  0  0  0  0  0  0  0  0  0
   52.3355   82.1285   26.9021 H   0  0  0  0  0  0  0  0  0  0  0  0
   56.1889   82.7896   26.8497 H   0  0  0  0  0  0  0  0  0  0  0  0
   56.1361   81.6592   25.4547 H   0  0  0  0  0  0  0  0  0  0  0  0
   55.1109   83.1342   25.4547 H   0  0  0  0  0  0  0  0  0  0  0  0
   57.4776   79.3119   31.5837 H   0  0  0  0  0  0  0  0  0  0  0  0
   58.5182   81.1358   32.9071 H   0  0  0  0  0  0  0  0  0  0  0  0
  1  2  1  0
  2  3  1  0
  3  4  1  0
  4  5  2  0
  4  6  1  0
  6  7  2  0
  6  8  1  0
  8  9  2  0
  9 10  1  0
 10 11  2  0
 11 12  1  0
 11 13  1  0
 13 14  1  0
 14 15  1  0
 14 16  1  0
  3 17  1  0
 17 18  1  0
 18 19  2  0
 19 20  1  0
 20 21  1  0
 21 22  1  0
 22 23  2  0
 23 24  1  0
 24 25  2  0
 25 26  1  0
 25 27  1  0
 27 28  1  0
 28 29  2  0
 29 30  1  0
 30 31  2  0
 31 32  1  0
 31 33  1  0
 33 34  1  0
 34 35  1  0
 34 36  1  0
 27 37  2  0
 20 38  2  0
 38 39  1  0
 13  8  1  0
 39 17  2  0
 37 22  1  0
 33 28  1  0
  1 40  1  0
  1 41  1  0
  1 42  1  0
  2 43  1  0
  2 44  1  0
  3 45  1  0
  9 46  1  0
 12 47  1  0
 12 48  1  0
 12 49  1  0
 14 50  1  0
 15 51  1  0
 15 52  1  0
 15 53  1  0
 16 54  1  0
 16 55  1  0
 16 56  1  0
 18 57  1  0
 19 58  1  0
 21 59  1  0
 24 60  1  0
 29 61  1  0
 32 62  1  0
 32 63  1  0
 32 64  1  0
 34 65  1  0
 35 66  1  0
 35 67  1  0
 35 68  1  0
 36 69  1  0
 36 70  1  0
 36 71  1  0
 38 72  1  0
 39 73  1  0
M  END
>  <meeko>  (11) 
{"is_sidechain": false}

>  <smiles>  (11) 
CCC(C(=O)C(=O)c1cnc(C)n1C(C)C)c1ccc(Nc2ncc(F)c(-c3cnc(C)n3C(C)C)n2)cc1

>  <vina_score>  (11) 
-8.894

$$$$

     RDKit          3D

 40 41  0  0  0  0  0  0  0  0999 V2000
   58.9270   80.2320   30.9950 C   0  0  0  0  0  0  0  0  0  0  0  0
   59.3100   80.6620   29.5870 C   0  0  0  0  0  0  0  0  0  0  0  0
   58.3520   80.0880   28.5440 C   0  0  0  0  0  0  0  0  0  0  0  0
   57.9920   78.7320   28.9240 N   0  0  0  0  0  0  0  0  0  0  0  0
   56.6570   78.4180   28.7090 C   0  0  0  0  0  0  0  0  0  0  0  0
   56.0990   77.6180   29.6290 N   0  0  0  0  0  0  0  0  0  0  0  0
   54.8020   77.2950   29.4510 C   0  0  0  0  0  0  0  0  0  0  0  0
   54.0520   77.7430   28.3960 C   0  0  0  0  0  0  0  0  0  0  0  0
   52.7680   77.3910   28.2610 F   0  0  0  0  0  0  0  0  0  0  0  0
   54.7050   78.5690   27.5090 C   0  0  0  0  0  0  0  0  0  0  0  0
   54.0540   79.0990   26.3190 C   0  0  0  0  0  0  0  0  0  0  0  0
   53.4000   78.3980   25.3240 C   0  0  0  0  0  0  0  0  0  0  0  0
   52.9350   79.2220   24.3440 N   0  0  0  0  0  0  0  0  0  0  0  0
   53.2780   80.4370   24.7110 C   0  0  0  0  0  0  0  0  0  0  0  0
   52.9910   81.6640   23.9200 C   0  0  0  0  0  0  0  0  0  0  0  0
   53.9330   80.4250   25.9360 N   0  0  0  0  0  0  0  0  0  0  0  0
   54.3320   81.6350   26.6590 C   0  0  0  0  0  0  0  0  0  0  0  0
   53.1620   82.5870   26.8950 C   0  0  0  0  0  0  0  0  0  0  0  0
   55.5600   82.3500   26.0890 C   0  0  0  0  0  0  0  0  0  0  0  0
   56.0050   78.9080   27.6450 N   0  0  0  0  0  0  0  0  0  0  0  0
   59.4731   80.8452   31.7270 H   0  0  0  0  0  0  0  0  0  0  0  0
   57.8448   80.3673   31.1381 H   0  0  0  0  0  0  0  0  0  0  0  0
   59.1861   79.1726   31.1381 H   0  0  0  0  0  0  0  0  0  0  0  0
   59.2841   81.7602   29.5296 H   0  0  0  0  0  0  0  0  0  0  0  0
   60.3197   80.2814   29.3734 H   0  0  0  0  0  0  0  0  0  0  0  0
   57.4458   80.7096   28.4946 H   0  0  0  0  0  0  0  0  0  0  0  0
   58.8396   80.0794   27.5580 H   0  0  0  0  0  0  0  0  0  0  0  0
   58.5180   78.0040   28.4520 H   0  0  0  0  0  0  0  0  0  0  0  0
   54.3216   76.6380   30.1910 H   0  0  0  0  0  0  0  0  0  0  0  0
   53.2704   77.3057   25.3233 H   0  0  0  0  0  0  0  0  0  0  0  0
   52.7947   82.5033   24.6034 H   0  0  0  0  0  0  0  0  0  0  0  0
   53.8576   81.9025   23.2859 H   0  0  0  0  0  0  0  0  0  0  0  0
   52.1085   81.4934   23.2859 H   0  0  0  0  0  0  0  0  0  0  0  0
   54.6595   81.2689   27.6432 H   0  0  0  0  0  0  0  0  0  0  0  0
   53.0054   82.7145   27.9763 H   0  0  0  0  0  0  0  0  0  0  0  0
   53.3857   83.5629   26.4394 H   0  0  0  0  0  0  0  0  0  0  0  0
   52.2520   82.1696   26.4394 H   0  0  0  0  0  0  0  0  0  0  0  0
   56.1878   82.7155   26.9150 H   0  0  0  0  0  0  0  0  0  0  0  0
   56.1392   81.6479   25.4712 H   0  0  0  0  0  0  0  0  0  0  0  0
   55.2353   83.2003   25.4712 H   0  0  0  0  0  0  0  0  0  0  0  0
  1  2  1  0
  2  3  1  0
  3  4  1  0
  4  5  1  0
  5  6  2  0
  6  7  1  0
  7  8  2  0
  8  9  1  0
  8 10  1  0
 10 11  1  0
 11 12  2  0
 12 13  1  0
 13 14  2  0
 14 15  1  0
 14 16  1  0
 16 17  1  0
 17 18  1  0
 17 19  1  0
 10 20  2  0
 20  5  1  0
 16 11  1  0
  1 21  1  0
  1 22  1  0
  1 23  1  0
  2 24  1  0
  2 25  1  0
  3 26  1  0
  3 27  1  0
  4 28  1  0
  7 29  1  0
 12 30  1  0
 15 31  1  0
 15 32  1  0
 15 33  1  0
 17 34  1  0
 18 35  1  0
 18 36  1  0
 18 37  1  0
 19 38  1  0
 19 39  1  0
 19 40  1  0
M  END
>  <meeko>  (12) 
{"is_sidechain": false}

>  <smiles>  (12) 
CCCNc1ncc(F)c(-c2cnc(C)n2C(C)C)n1

>  <vina_score>  (12) 
-7.243

$$$$

     RDKit          3D

 64 66  0  0  0  0  0  0  0  0999 V2000
   61.1630   80.0030   33.7600 C   0  0  0  0  0  0  0  0  0  0  0  0
   61.5440   81.3570   34.3320 C   0  0  0  0  0  0  0  0  0  0  0  0
   61.9440   82.3120   33.2930 N   0  0  0  0  0  0  0  0  0  0  0  0
   61.2910   83.6240   33.3010 C   0  0  0  0  0  0  0  0  0  0  0  0
   59.8020   83.6100   32.9330 C   0  0  0  0  0  0  0  0  0  0  0  0
   59.5570   83.6970   31.4260 C   0  0  0  0  0  0  0  0  0  0  0  0
   59.1240   82.3730   30.8480 C   0  0  0  0  0  0  0  0  0  0  0  0
   59.3440   82.0830   29.4980 C   0  0  0  0  0  0  0  0  0  0  0  0
   58.9370   80.8580   28.9540 C   0  0  0  0  0  0  0  0  0  0  0  0
   58.2960   79.8930   29.7360 C   0  0  0  0  0  0  0  0  0  0  0  0
   57.8700   78.6520   29.2550 N   0  0  0  0  0  0  0  0  0  0  0  0
   56.6290   78.1080   28.9390 C   0  0  0  0  0  0  0  0  0  0  0  0
   56.2930   76.8540   29.2670 N   0  0  0  0  0  0  0  0  0  0  0  0
   55.0660   76.4220   28.9170 C   0  0  0  0  0  0  0  0  0  0  0  0
   54.1510   77.1930   28.2500 C   0  0  0  0  0  0  0  0  0  0  0  0
   52.8060   76.6970   27.8800 C   0  0  0  0  0  0  0  0  0  0  0  0
   52.5640   75.4250   28.3030 F   0  0  0  0  0  0  0  0  0  0  0  0
   51.8000   77.4480   28.4180 F   0  0  0  0  0  0  0  0  0  0  0  0
   52.5780   76.7050   26.5380 F   0  0  0  0  0  0  0  0  0  0  0  0
   54.5810   78.4600   27.9560 C   0  0  0  0  0  0  0  0  0  0  0  0
   53.6970   79.2830   27.2900 O   0  0  0  0  0  0  0  0  0  0  0  0
   54.2430   80.0630   26.2130 C   0  0  0  0  0  0  0  0  0  0  0  0
   53.2870   81.2250   25.8860 C   0  0  0  0  0  0  0  0  0  0  0  0
   53.2910   81.5750   24.4040 C   0  0  0  0  0  0  0  0  0  0  0  0
   52.8290   80.3950   23.5480 C   0  0  0  0  0  0  0  0  0  0  0  0
   53.1820   79.0340   24.1490 C   0  0  0  0  0  0  0  0  0  0  0  0
   54.4320   79.1080   25.0190 C   0  0  0  0  0  0  0  0  0  0  0  0
   55.7990   78.9330   28.2870 N   0  0  0  0  0  0  0  0  0  0  0  0
   58.0780   80.1980   31.0900 C   0  0  0  0  0  0  0  0  0  0  0  0
   58.4820   81.4200   31.6410 C   0  0  0  0  0  0  0  0  0  0  0  0
   63.0660   82.1380   32.4860 C   0  0  0  0  0  0  0  0  0  0  0  0
   62.9260   82.4730   31.0210 C   0  0  0  0  0  0  0  0  0  0  0  0
   64.1440   81.7340   32.9190 O   0  0  0  0  0  0  0  0  0  0  0  0
   60.9652   79.3000   34.5826 H   0  0  0  0  0  0  0  0  0  0  0  0
   60.2593   80.1074   33.1415 H   0  0  0  0  0  0  0  0  0  0  0  0
   61.9885   79.6208   33.1415 H   0  0  0  0  0  0  0  0  0  0  0  0
   60.6793   81.7671   34.8743 H   0  0  0  0  0  0  0  0  0  0  0  0
   62.4056   81.2080   34.9994 H   0  0  0  0  0  0  0  0  0  0  0  0
   61.3887   84.0475   34.3115 H   0  0  0  0  0  0  0  0  0  0  0  0
   61.7933   84.2218   32.5261 H   0  0  0  0  0  0  0  0  0  0  0  0
   59.3575   82.6758   33.3068 H   0  0  0  0  0  0  0  0  0  0  0  0
   59.3416   84.4971   33.3925 H   0  0  0  0  0  0  0  0  0  0  0  0
   58.7702   84.4420   31.2363 H   0  0  0  0  0  0  0  0  0  0  0  0
   60.5024   83.9861   30.9436 H   0  0  0  0  0  0  0  0  0  0  0  0
   59.8420   82.8247   28.8563 H   0  0  0  0  0  0  0  0  0  0  0  0
   59.1256   80.6514   27.8902 H   0  0  0  0  0  0  0  0  0  0  0  0
   58.5840   77.9550   29.1010 H   0  0  0  0  0  0  0  0  0  0  0  0
   54.7830   75.3925   29.1816 H   0  0  0  0  0  0  0  0  0  0  0  0
   55.2117   80.5130   26.4758 H   0  0  0  0  0  0  0  0  0  0  0  0
   52.2666   80.9371   26.1790 H   0  0  0  0  0  0  0  0  0  0  0  0
   53.6293   82.1100   26.4424 H   0  0  0  0  0  0  0  0  0  0  0  0
   52.6138   82.4254   24.2358 H   0  0  0  0  0  0  0  0  0  0  0  0
   54.3205   81.8305   24.1126 H   0  0  0  0  0  0  0  0  0  0  0  0
   51.7364   80.4532   23.4344 H   0  0  0  0  0  0  0  0  0  0  0  0
   53.3518   80.4694   22.5830 H   0  0  0  0  0  0  0  0  0  0  0  0
   52.3392   78.6870   24.7649 H   0  0  0  0  0  0  0  0  0  0  0  0
   53.3806   78.3357   23.3226 H   0  0  0  0  0  0  0  0  0  0  0  0
   54.6602   78.1019   25.4006 H   0  0  0  0  0  0  0  0  0  0  0  0
   55.2563   79.4930   24.4007 H   0  0  0  0  0  0  0  0  0  0  0  0
   57.5777   79.4587   31.7328 H   0  0  0  0  0  0  0  0  0  0  0  0
   58.2927   81.6303   32.7040 H   0  0  0  0  0  0  0  0  0  0  0  0
   62.5038   83.4832   30.9146 H   0  0  0  0  0  0  0  0  0  0  0  0
   63.9148   82.4363   30.5404 H   0  0  0  0  0  0  0  0  0  0  0  0
   62.2574   81.7437   30.5404 H   0  0  0  0  0  0  0  0  0  0  0  0
  1  2  1  0
  2  3  1  0
  3  4  1  0
  4  5  1  0
  5  6  1  0
  6  7  1  0
  7  8  1  0
  8  9  2  0
  9 10  1  0
 10 11  1  0
 11 12  1  0
 12 13  2  0
 13 14  1  0
 14 15  2  0
 15 16  1  0
 16 17  1  0
 16 18  1  0
 16 19  1  0
 15 20  1  0
 20 21  1  0
 21 22  1  0
 22 23  1  0
 23 24  1  0
 24 25  1  0
 25 26  1  0
 26 27  1  0
 20 28  2  0
 10 29  2  0
 29 30  1  0
  3 31  1  0
 31 32  1  0
 31 33  2  0
 30  7  2  0
 28 12  1  0
 27 22  1  0
  1 34  1  0
  1 35  1  0
  1 36  1  0
  2 37  1  0
  2 38  1  0
  4 39  1  0
  4 40  1  0
  5 41  1  0
  5 42  1  0
  6 43  1  0
  6 44  1  0
  8 45  1  0
  9 46  1  0
 11 47  1  0
 14 48  1  0
 22 49  1  0
 23 50  1  0
 23 51  1  0
 24 52  1  0
 24 53  1  0
 25 54  1  0
 25 55  1  0
 26 56  1  0
 26 57  1  0
 27 58  1  0
 27 59  1  0
 29 60  1  0
 30 61  1  0
 32 62  1  0
 32 63  1  0
 32 64  1  0
M  END
>  <meeko>  (13) 
{"is_sidechain": false}

>  <smiles>  (13) 
CCN(CCCc1ccc(Nc2ncc(C(F)(F)F)c(OC3CCCCC3)n2)cc1)C(C)=O

>  <vina_score>  (13) 
-7.983

$$$$

     RDKit          3D

 56 59  0  0  0  0  0  0  0  0999 V2000
   66.1050   83.6200   31.2150 C   0  0  0  0  0  0  0  0  0  0  0  0
   65.5370   82.3980   30.6440 N   0  0  0  0  0  0  0  0  0  0  0  0
   66.5500   81.3370   30.6450 C   0  0  0  0  0  0  0  0  0  0  0  0
   64.3390   81.9480   31.3790 C   0  0  0  0  0  0  0  0  0  0  0  0
   63.0560   82.7120   31.0020 C   0  0  0  0  0  0  0  0  0  0  0  0
   62.1400   82.7310   32.1490 N   0  0  0  0  0  0  0  0  0  0  0  0
   60.5640   83.2600   31.9480 S   0  0  0  0  0  0  0  0  0  0  0  0
   59.9470   83.3420   33.2530 O   0  0  0  0  0  0  0  0  0  0  0  0
   60.6290   84.4000   31.0600 O   0  0  0  0  0  0  0  0  0  0  0  0
   59.8160   81.9180   31.0580 C   0  0  0  0  0  0  0  0  0  0  0  0
   59.8740   81.9030   29.6650 C   0  0  0  0  0  0  0  0  0  0  0  0
   59.2810   80.8490   28.9620 C   0  0  0  0  0  0  0  0  0  0  0  0
   58.6250   79.8090   29.6340 C   0  0  0  0  0  0  0  0  0  0  0  0
   57.9890   78.7500   28.9640 N   0  0  0  0  0  0  0  0  0  0  0  0
   56.6350   78.4820   28.6950 C   0  0  0  0  0  0  0  0  0  0  0  0
   55.9360   77.6200   29.5540 C   0  0  0  0  0  0  0  0  0  0  0  0
   54.6010   77.2880   29.3140 C   0  0  0  0  0  0  0  0  0  0  0  0
   53.9440   77.8070   28.2010 C   0  0  0  0  0  0  0  0  0  0  0  0
   54.6210   78.6570   27.3200 C   0  0  0  0  0  0  0  0  0  0  0  0
   53.9420   79.2160   26.1580 C   0  0  0  0  0  0  0  0  0  0  0  0
   53.5320   78.6010   24.9890 C   0  0  0  0  0  0  0  0  0  0  0  0
   52.9300   79.4820   24.1300 N   0  0  0  0  0  0  0  0  0  0  0  0
   52.9420   80.6370   24.7590 C   0  0  0  0  0  0  0  0  0  0  0  0
   52.4520   81.9160   24.3690 C   0  0  0  0  0  0  0  0  0  0  0  0
   52.5600   82.9620   25.2110 C   0  0  0  0  0  0  0  0  0  0  0  0
   53.1690   82.8190   26.5240 C   0  0  0  0  0  0  0  0  0  0  0  0
   53.6410   81.6170   26.8960 C   0  0  0  0  0  0  0  0  0  0  0  0
   53.5380   80.5350   26.0160 N   0  0  0  0  0  0  0  0  0  0  0  0
   55.9590   78.9900   27.5780 C   0  0  0  0  0  0  0  0  0  0  0  0
   58.5630   79.8590   31.0360 C   0  0  0  0  0  0  0  0  0  0  0  0
   59.1510   80.9060   31.7510 C   0  0  0  0  0  0  0  0  0  0  0  0
   66.0768   83.5592   32.3130 H   0  0  0  0  0  0  0  0  0  0  0  0
   67.1470   83.7310   30.8806 H   0  0  0  0  0  0  0  0  0  0  0  0
   65.5181   84.4882   30.8806 H   0  0  0  0  0  0  0  0  0  0  0  0
   66.8027   81.0723   31.6823 H   0  0  0  0  0  0  0  0  0  0  0  0
   66.1538   80.4513   30.1267 H   0  0  0  0  0  0  0  0  0  0  0  0
   67.4531   81.6918   30.1267 H   0  0  0  0  0  0  0  0  0  0  0  0
   64.1822   80.8802   31.1663 H   0  0  0  0  0  0  0  0  0  0  0  0
   64.5257   82.1413   32.4457 H   0  0  0  0  0  0  0  0  0  0  0  0
   63.3133   83.7441   30.7217 H   0  0  0  0  0  0  0  0  0  0  0  0
   62.5683   82.2109   30.1529 H   0  0  0  0  0  0  0  0  0  0  0  0
   62.5160   82.8860   33.0820 H   0  0  0  0  0  0  0  0  0  0  0  0
   60.3823   82.7140   29.1228 H   0  0  0  0  0  0  0  0  0  0  0  0
   59.3305   80.8364   27.8632 H   0  0  0  0  0  0  0  0  0  0  0  0
   58.6120   77.9980   28.6900 H   0  0  0  0  0  0  0  0  0  0  0  0
   56.4485   77.1987   30.4314 H   0  0  0  0  0  0  0  0  0  0  0  0
   54.0684   76.6168   30.0038 H   0  0  0  0  0  0  0  0  0  0  0  0
   52.8913   77.5482   28.0144 H   0  0  0  0  0  0  0  0  0  0  0  0
   53.6726   77.5313   24.7745 H   0  0  0  0  0  0  0  0  0  0  0  0
   51.9860   82.0496   23.3816 H   0  0  0  0  0  0  0  0  0  0  0  0
   52.1793   83.9456   24.8987 H   0  0  0  0  0  0  0  0  0  0  0  0
   53.2422   83.6818   27.2024 H   0  0  0  0  0  0  0  0  0  0  0  0
   54.1047   81.4852   27.8848 H   0  0  0  0  0  0  0  0  0  0  0  0
   56.4886   79.6642   26.8888 H   0  0  0  0  0  0  0  0  0  0  0  0
   58.0417   79.0588   31.5819 H   0  0  0  0  0  0  0  0  0  0  0  0
   59.0901   80.9319   32.8490 H   0  0  0  0  0  0  0  0  0  0  0  0
  1  2  1  0
  2  3  1  0
  2  4  1  0
  4  5  1  0
  5  6  1  0
  6  7  1  0
  7  8  2  0
  7  9  2  0
  7 10  1  0
 10 11  1  0
 11 12  2  0
 12 13  1  0
 13 14  1  0
 14 15  1  0
 15 16  2  0
 16 17  1  0
 17 18  2  0
 18 19  1  0
 19 20  1  0
 20 21  2  0
 21 22  1  0
 22 23  2  0
 23 24  1  0
 24 25  2  0
 25 26  1  0
 26 27  2  0
 27 28  1  0
 19 29  2  0
 13 30  2  0
 30 31  1  0
 31 10  2  0
 29 15  1  0
 28 20  1  0
 28 23  1  0
  1 32  1  0
  1 33  1  0
  1 34  1  0
  3 35  1  0
  3 36  1  0
  3 37  1  0
  4 38  1  0
  4 39  1  0
  5 40  1  0
  5 41  1  0
  6 42  1  0
 11 43  1  0
 12 44  1  0
 14 45  1  0
 16 46  1  0
 17 47  1  0
 18 48  1  0
 21 49  1  0
 24 50  1  0
 25 51  1  0
 26 52  1  0
 27 53  1  0
 29 54  1  0
 30 55  1  0
 31 56  1  0
M  END
>  <meeko>  (14) 
{"is_sidechain": false}

>  <smiles>  (14) 
CN(C)CCNS(=O)(=O)c1ccc(Nc2cccc(-c3cnc4ccccn34)c2)cc1

>  <vina_score>  (14) 
-9.251

$$$$

     RDKit          3D

 48 50  0  0  0  0  0  0  0  0999 V2000
   62.3530   83.7380   33.0550 C   0  0  0  0  0  0  0  0  0  0  0  0
   61.6600   82.7390   32.2830 N   0  0  0  0  0  0  0  0  0  0  0  0
   60.4910   83.0310   31.6140 C   0  0  0  0  0  0  0  0  0  0  0  0
   60.0130   84.1610   31.5790 O   0  0  0  0  0  0  0  0  0  0  0  0
   59.7960   81.9110   30.9180 C   0  0  0  0  0  0  0  0  0  0  0  0
   59.8080   81.8850   29.5190 C   0  0  0  0  0  0  0  0  0  0  0  0
   59.1710   80.8510   28.8160 C   0  0  0  0  0  0  0  0  0  0  0  0
   58.5040   79.8210   29.4850 C   0  0  0  0  0  0  0  0  0  0  0  0
   57.8550   78.7630   28.8410 N   0  0  0  0  0  0  0  0  0  0  0  0
   56.5260   78.3680   28.7240 C   0  0  0  0  0  0  0  0  0  0  0  0
   55.9370   77.5650   29.6250 N   0  0  0  0  0  0  0  0  0  0  0  0
   54.6450   77.2330   29.4190 C   0  0  0  0  0  0  0  0  0  0  0  0
   53.9180   77.6810   28.3500 C   0  0  0  0  0  0  0  0  0  0  0  0
   52.6360   77.3350   28.1840 F   0  0  0  0  0  0  0  0  0  0  0  0
   54.5930   78.5050   27.4810 C   0  0  0  0  0  0  0  0  0  0  0  0
   53.9810   79.0630   26.2860 C   0  0  0  0  0  0  0  0  0  0  0  0
   53.4230   78.3960   25.2170 C   0  0  0  0  0  0  0  0  0  0  0  0
   52.9360   79.2670   24.2890 N   0  0  0  0  0  0  0  0  0  0  0  0
   53.2040   80.4740   24.7440 C   0  0  0  0  0  0  0  0  0  0  0  0
   52.8550   81.7170   24.0070 C   0  0  0  0  0  0  0  0  0  0  0  0
   53.8660   80.4070   25.9580 N   0  0  0  0  0  0  0  0  0  0  0  0
   54.4000   81.5140   26.7530 C   0  0  0  0  0  0  0  0  0  0  0  0
   53.3100   82.4820   27.2160 C   0  0  0  0  0  0  0  0  0  0  0  0
   55.5680   82.2450   26.0880 C   0  0  0  0  0  0  0  0  0  0  0  0
   55.8880   78.8540   27.6470 N   0  0  0  0  0  0  0  0  0  0  0  0
   58.4980   79.8570   30.8870 C   0  0  0  0  0  0  0  0  0  0  0  0
   59.1330   80.8860   31.5880 C   0  0  0  0  0  0  0  0  0  0  0  0
   59.0770   80.8530   32.9290 F   0  0  0  0  0  0  0  0  0  0  0  0
   62.2126   83.5356   34.1271 H   0  0  0  0  0  0  0  0  0  0  0  0
   63.4258   83.7088   32.8138 H   0  0  0  0  0  0  0  0  0  0  0  0
   61.9499   84.7326   32.8138 H   0  0  0  0  0  0  0  0  0  0  0  0
   61.9590   81.7730   32.3650 H   0  0  0  0  0  0  0  0  0  0  0  0
   60.3223   82.6837   28.9644 H   0  0  0  0  0  0  0  0  0  0  0  0
   59.1972   80.8511   27.7163 H   0  0  0  0  0  0  0  0  0  0  0  0
   58.4330   78.0930   28.3520 H   0  0  0  0  0  0  0  0  0  0  0  0
   54.1527   76.5701   30.1458 H   0  0  0  0  0  0  0  0  0  0  0  0
   53.3766   77.3009   25.1246 H   0  0  0  0  0  0  0  0  0  0  0  0
   52.6299   82.5186   24.7259 H   0  0  0  0  0  0  0  0  0  0  0  0
   53.7031   82.0189   23.3749 H   0  0  0  0  0  0  0  0  0  0  0  0
   51.9737   81.5333   23.3749 H   0  0  0  0  0  0  0  0  0  0  0  0
   54.8189   81.0412   27.6535 H   0  0  0  0  0  0  0  0  0  0  0  0
   53.2834   82.5056   28.3154 H   0  0  0  0  0  0  0  0  0  0  0  0
   53.5277   83.4898   26.8328 H   0  0  0  0  0  0  0  0  0  0  0  0
   52.3349   82.1467   26.8328 H   0  0  0  0  0  0  0  0  0  0  0  0
   56.2300   82.6593   26.8626 H   0  0  0  0  0  0  0  0  0  0  0  0
   56.1334   81.5393   25.4616 H   0  0  0  0  0  0  0  0  0  0  0  0
   55.1804   83.0620   25.4616 H   0  0  0  0  0  0  0  0  0  0  0  0
   57.9840   79.0607   31.4453 H   0  0  0  0  0  0  0  0  0  0  0  0
  1  2  1  0
  2  3  1  0
  3  4  2  0
  3  5  1  0
  5  6  1  0
  6  7  2  0
  7  8  1  0
  8  9  1  0
  9 10  1  0
 10 11  2  0
 11 12  1  0
 12 13  2  0
 13 14  1  0
 13 15  1  0
 15 16  1  0
 16 17  2  0
 17 18  1  0
 18 19  2  0
 19 20  1  0
 19 21  1  0
 21 22  1  0
 22 23  1  0
 22 24  1  0
 15 25  2  0
  8 26  2  0
 26 27  1  0
 27 28  1  0
 27  5  2  0
 25 10  1  0
 21 16  1  0
  1 29  1  0
  1 30  1  0
  1 31  1  0
  2 32  1  0
  6 33  1  0
  7 34  1  0
  9 35  1  0
 12 36  1  0
 17 37  1  0
 20 38  1  0
 20 39  1  0
 20 40  1  0
 22 41  1  0
 23 42  1  0
 23 43  1  0
 23 44  1  0
 24 45  1  0
 24 46  1  0
 24 47  1  0
 26 48  1  0
M  END
>  <meeko>  (15) 
{"is_sidechain": false}

>  <smiles>  (15) 
CNC(=O)c1ccc(Nc2ncc(F)c(-c3cnc(C)n3C(C)C)n2)cc1F

>  <vina_score>  (15) 
-9.071

$$$$

     RDKit          3D

 55 57  0  0  0  0  0  0  0  0999 V2000
   58.2490   79.8620   28.4160 C   0  0  0  0  0  0  0  0  0  0  0  0
   58.0340   78.4500   28.7190 N   0  0  0  0  0  0  0  0  0  0  0  0
   57.0080   78.3570   29.6890 N   0  0  0  0  0  0  0  0  0  0  0  0
   55.9300   77.5760   29.4320 C   0  0  0  0  0  0  0  0  0  0  0  0
   55.5590   76.4860   30.1370 N   0  0  0  0  0  0  0  0  0  0  0  0
   54.4410   76.0360   29.5190 N   0  0  0  0  0  0  0  0  0  0  0  0
   54.1090   76.8130   28.4700 C   0  0  0  0  0  0  0  0  0  0  0  0
   55.0380   77.8040   28.3850 C   0  0  0  0  0  0  0  0  0  0  0  0
   54.7580   78.7020   27.2680 C   0  0  0  0  0  0  0  0  0  0  0  0
   53.5160   78.0880   26.7220 N   0  0  0  0  0  0  0  0  0  0  0  0
   52.9370   78.6660   25.6200 C   0  0  0  0  0  0  0  0  0  0  0  0
   52.9320   78.1450   24.5120 O   0  0  0  0  0  0  0  0  0  0  0  0
   52.3850   79.8700   25.8970 O   0  0  0  0  0  0  0  0  0  0  0  0
   53.0520   81.0320   25.3470 C   0  0  2  0  0  0  0  0  0  0  0  0
   52.9340   82.2160   26.3530 C   0  0  0  0  0  0  0  0  0  0  0  0
   54.1430   83.0520   26.5510 N   0  0  0  0  0  0  0  0  0  0  0  0
   55.3720   82.3620   26.1610 C   0  0  0  0  0  0  0  0  0  0  0  0
   54.0160   84.2960   25.7840 C   0  0  0  0  0  0  0  0  0  0  0  0
   52.3790   81.2520   24.0030 C   0  0  0  0  0  0  0  0  0  0  0  0
   50.9880   81.1290   23.8460 C   0  0  0  0  0  0  0  0  0  0  0  0
   50.3930   81.3200   22.5970 C   0  0  0  0  0  0  0  0  0  0  0  0
   51.1780   81.6230   21.4880 C   0  0  0  0  0  0  0  0  0  0  0  0
   52.5600   81.7320   21.6230 C   0  0  0  0  0  0  0  0  0  0  0  0
   53.1570   81.5420   22.8710 C   0  0  0  0  0  0  0  0  0  0  0  0
   53.0450   76.8520   27.4450 C   0  0  0  0  0  0  0  0  0  0  0  0
   51.6720   77.0450   28.0930 C   0  0  0  0  0  0  0  0  0  0  0  0
   53.0970   75.6040   26.5600 C   0  0  0  0  0  0  0  0  0  0  0  0
   58.3354   80.4294   29.3544 H   0  0  0  0  0  0  0  0  0  0  0  0
   59.1747   79.9750   27.8327 H   0  0  0  0  0  0  0  0  0  0  0  0
   57.3989   80.2454   27.8327 H   0  0  0  0  0  0  0  0  0  0  0  0
   58.8970   78.0820   29.1460 H   0  0  0  0  0  0  0  0  0  0  0  0
   56.9300   79.1420   30.3340 H   0  0  0  0  0  0  0  0  0  0  0  0
   53.9860   75.2060   29.8850 H   0  0  0  0  0  0  0  0  0  0  0  0
   54.5834   79.7325   27.6108 H   0  0  0  0  0  0  0  0  0  0  0  0
   55.5783   78.7946   26.5410 H   0  0  0  0  0  0  0  0  0  0  0  0
   54.1350   80.9188   25.1914 H   0  0  0  0  0  0  0  0  0  0  0  0
   52.1288   82.8754   25.9970 H   0  0  0  0  0  0  0  0  0  0  0  0
   52.7484   81.7449   27.3295 H   0  0  0  0  0  0  0  0  0  0  0  0
   55.9213   82.0536   27.0627 H   0  0  0  0  0  0  0  0  0  0  0  0
   55.1199   81.4735   25.5634 H   0  0  0  0  0  0  0  0  0  0  0  0
   55.9993   83.0399   25.5634 H   0  0  0  0  0  0  0  0  0  0  0  0
   53.9292   85.1464   26.4763 H   0  0  0  0  0  0  0  0  0  0  0  0
   54.9053   84.4284   25.1503 H   0  0  0  0  0  0  0  0  0  0  0  0
   53.1183   84.2460   25.1503 H   0  0  0  0  0  0  0  0  0  0  0  0
   50.3617   80.8799   24.7153 H   0  0  0  0  0  0  0  0  0  0  0  0
   49.3019   81.2308   22.4894 H   0  0  0  0  0  0  0  0  0  0  0  0
   50.7072   81.7762   20.5057 H   0  0  0  0  0  0  0  0  0  0  0  0
   53.1813   81.9678   20.7464 H   0  0  0  0  0  0  0  0  0  0  0  0
   54.2499   81.6205   22.9682 H   0  0  0  0  0  0  0  0  0  0  0  0
   51.7779   77.0301   29.1878 H   0  0  0  0  0  0  0  0  0  0  0  0
   51.2507   78.0112   27.7785 H   0  0  0  0  0  0  0  0  0  0  0  0
   51.0006   76.2324   27.7785 H   0  0  0  0  0  0  0  0  0  0  0  0
   53.1344   74.7060   27.1942 H   0  0  0  0  0  0  0  0  0  0  0  0
   52.1996   75.5672   25.9249 H   0  0  0  0  0  0  0  0  0  0  0  0
   53.9943   75.6420   25.9249 H   0  0  0  0  0  0  0  0  0  0  0  0
  1  2  1  0
  2  3  1  0
  3  4  1  0
  4  5  2  0
  5  6  1  0
  6  7  1  0
  7  8  2  0
  8  9  1  0
  9 10  1  0
 10 11  1  0
 11 12  2  0
 11 13  1  0
 13 14  1  0
 14 15  1  0
 15 16  1  0
 16 17  1  0
 16 18  1  0
 14 19  1  0
 19 20  2  0
 20 21  1  0
 21 22  2  0
 22 23  1  0
 23 24  2  0
 10 25  1  0
 25 26  1  0
 25 27  1  0
  8  4  1  0
 24 19  1  0
 25  7  1  0
  1 28  1  0
  1 29  1  0
  1 30  1  0
  2 31  1  0
  3 32  1  0
  6 33  1  0
  9 34  1  0
  9 35  1  0
 14 36  1  6
 15 37  1  0
 15 38  1  0
 17 39  1  0
 17 40  1  0
 17 41  1  0
 18 42  1  0
 18 43  1  0
 18 44  1  0
 20 45  1  0
 21 46  1  0
 22 47  1  0
 23 48  1  0
 24 49  1  0
 26 50  1  0
 26 51  1  0
 26 52  1  0
 27 53  1  0
 27 54  1  0
 27 55  1  0
M  END
>  <meeko>  (16) 
{"is_sidechain": false}

>  <smiles>  (16) 
CNNc1n[nH]c2c1CN(C(=O)O[C@H](CN(C)C)c1ccccc1)C2(C)C

>  <vina_score>  (16) 
-7.362

$$$$

     RDKit          3D

 60 63  0  0  0  0  0  0  0  0999 V2000
   51.5500   81.2990   25.0210 C   0  0  0  0  0  0  0  0  0  0  0  0
   52.1880   80.2300   25.6980 O   0  0  0  0  0  0  0  0  0  0  0  0
   53.5410   79.9210   25.3070 C   0  0  0  0  0  0  0  0  0  0  0  0
   54.4020   81.1660   25.0210 C   0  0  0  0  0  0  0  0  0  0  0  0
   53.4800   79.0480   24.0370 C   0  0  0  0  0  0  0  0  0  0  0  0
   54.1440   79.1810   26.4400 N   0  0  0  0  0  0  0  0  0  0  0  0
   55.2550   79.6470   27.0710 N   0  0  0  0  0  0  0  0  0  0  0  0
   55.5040   78.7400   28.0170 C   0  0  0  0  0  0  0  0  0  0  0  0
   56.5230   78.8040   28.9060 N   0  0  0  0  0  0  0  0  0  0  0  0
   57.8690   79.0770   28.4330 C   0  0  0  0  0  0  0  0  0  0  0  0
   58.5610   79.9830   29.4240 C   0  0  0  0  0  0  0  0  0  0  0  0
   58.3150   79.8580   30.7940 C   0  0  0  0  0  0  0  0  0  0  0  0
   58.9390   80.7110   31.7150 C   0  0  0  0  0  0  0  0  0  0  0  0
   59.8110   81.7270   31.3020 C   0  0  0  0  0  0  0  0  0  0  0  0
   60.4640   82.5970   32.1900 N   0  0  0  0  0  0  0  0  0  0  0  0
   61.9410   82.6410   32.1630 C   0  0  0  0  0  0  0  0  0  0  0  0
   62.4750   83.8020   33.0350 C   0  0  0  0  0  0  0  0  0  0  0  0
   61.9830   83.8260   34.4310 N   0  0  0  0  0  0  0  0  0  0  0  0
   62.5690   82.7550   35.2310 C   0  0  0  0  0  0  0  0  0  0  0  0
   60.5060   83.7470   34.4080 C   0  0  0  0  0  0  0  0  0  0  0  0
   59.9060   82.5950   33.5640 C   0  0  0  0  0  0  0  0  0  0  0  0
   60.0510   81.8320   29.9220 C   0  0  0  0  0  0  0  0  0  0  0  0
   59.4340   80.9850   28.9940 C   0  0  0  0  0  0  0  0  0  0  0  0
   54.5520   77.6890   28.0090 C   0  0  0  0  0  0  0  0  0  0  0  0
   54.3020   76.5050   28.7100 C   0  0  0  0  0  0  0  0  0  0  0  0
   55.1350   75.9940   29.7050 N   0  0  0  0  0  0  0  0  0  0  0  0
   53.2070   75.7820   28.3970 N   0  0  0  0  0  0  0  0  0  0  0  0
   52.4050   76.2320   27.4130 C   0  0  0  0  0  0  0  0  0  0  0  0
   52.5530   77.3370   26.6640 N   0  0  0  0  0  0  0  0  0  0  0  0
   53.6620   78.0210   27.0040 C   0  0  0  0  0  0  0  0  0  0  0  0
   51.1310   82.0011   25.7569 H   0  0  0  0  0  0  0  0  0  0  0  0
   52.2831   81.8232   24.3903 H   0  0  0  0  0  0  0  0  0  0  0  0
   50.7406   80.9026   24.3903 H   0  0  0  0  0  0  0  0  0  0  0  0
   54.7164   81.6207   25.9720 H   0  0  0  0  0  0  0  0  0  0  0  0
   55.2909   80.8723   24.4434 H   0  0  0  0  0  0  0  0  0  0  0  0
   53.8135   81.8940   24.4434 H   0  0  0  0  0  0  0  0  0  0  0  0
   53.4060   77.9886   24.3235 H   0  0  0  0  0  0  0  0  0  0  0  0
   52.5993   79.3290   23.4408 H   0  0  0  0  0  0  0  0  0  0  0  0
   54.3912   79.2038   23.4408 H   0  0  0  0  0  0  0  0  0  0  0  0
   56.3260   79.2250   29.8100 H   0  0  0  0  0  0  0  0  0  0  0  0
   58.4272   78.1335   28.3428 H   0  0  0  0  0  0  0  0  0  0  0  0
   57.8263   79.5651   27.4482 H   0  0  0  0  0  0  0  0  0  0  0  0
   57.6239   79.0815   31.1537 H   0  0  0  0  0  0  0  0  0  0  0  0
   58.7391   80.5794   32.7886 H   0  0  0  0  0  0  0  0  0  0  0  0
   62.3367   81.6897   32.5483 H   0  0  0  0  0  0  0  0  0  0  0  0
   62.2688   82.8014   31.1253 H   0  0  0  0  0  0  0  0  0  0  0  0
   63.5722   83.7285   33.0631 H   0  0  0  0  0  0  0  0  0  0  0  0
   62.1057   84.7267   32.5676 H   0  0  0  0  0  0  0  0  0  0  0  0
   62.4434   82.9846   36.2994 H   0  0  0  0  0  0  0  0  0  0  0  0
   62.0647   81.8055   34.9982 H   0  0  0  0  0  0  0  0  0  0  0  0
   63.6405   82.6677   34.9982 H   0  0  0  0  0  0  0  0  0  0  0  0
   60.1584   83.6228   35.4442 H   0  0  0  0  0  0  0  0  0  0  0  0
   60.1643   84.6770   33.9302 H   0  0  0  0  0  0  0  0  0  0  0  0
   60.1415   81.6350   34.0466 H   0  0  0  0  0  0  0  0  0  0  0  0
   58.8171   82.7372   33.5004 H   0  0  0  0  0  0  0  0  0  0  0  0
   60.7456   82.6040   29.5592 H   0  0  0  0  0  0  0  0  0  0  0  0
   59.6377   81.1092   27.9202 H   0  0  0  0  0  0  0  0  0  0  0  0
   55.5830   75.1280   29.4210 H   0  0  0  0  0  0  0  0  0  0  0  0
   54.6100   75.9300   30.5710 H   0  0  0  0  0  0  0  0  0  0  0  0
   51.5184   75.6182   27.1957 H   0  0  0  0  0  0  0  0  0  0  0  0
  1  2  1  0
  2  3  1  0
  3  4  1  0
  3  5  1  0
  3  6  1  0
  6  7  1  0
  7  8  2  0
  8  9  1  0
  9 10  1  0
 10 11  1  0
 11 12  1  0
 12 13  2  0
 13 14  1  0
 14 15  1  0
 15 16  1  0
 16 17  1  0
 17 18  1  0
 18 19  1  0
 18 20  1  0
 20 21  1  0
 14 22  2  0
 22 23  1  0
  8 24  1  0
 24 25  2  0
 25 26  1  0
 25 27  1  0
 27 28  2  0
 28 29  1  0
 29 30  2  0
 30  6  1  0
 23 11  2  0
 30 24  1  0
 21 15  1  0
  1 31  1  0
  1 32  1  0
  1 33  1  0
  4 34  1  0
  4 35  1  0
  4 36  1  0
  5 37  1  0
  5 38  1  0
  5 39  1  0
  9 40  1  0
 10 41  1  0
 10 42  1  0
 12 43  1  0
 13 44  1  0
 16 45  1  0
 16 46  1  0
 17 47  1  0
 17 48  1  0
 19 49  1  0
 19 50  1  0
 19 51  1  0
 20 52  1  0
 20 53  1  0
 21 54  1  0
 21 55  1  0
 22 56  1  0
 23 57  1  0
 26 58  1  0
 26 59  1  0
 28 60  1  0
M  END
>  <meeko>  (17) 
{"is_sidechain": false}

>  <smiles>  (17) 
COC(C)(C)n1nc(NCc2ccc(N3CCN(C)CC3)cc2)c2c(N)ncnc21

>  <vina_score>  (17) 
-8.234

$$$$

     RDKit          3D

 53 54  0  0  0  0  0  0  0  0999 V2000
   61.0680   80.6400   36.5470 C   0  0  0  0  0  0  0  0  0  0  0  0
   60.9730   79.4930   35.7110 O   0  0  0  0  0  0  0  0  0  0  0  0
   60.8100   79.8570   34.3390 C   0  0  0  0  0  0  0  0  0  0  0  0
   60.2530   81.2820   34.2590 C   0  0  0  0  0  0  0  0  0  0  0  0
   59.0120   81.2990   33.4780 N   0  0  0  0  0  0  0  0  0  0  0  0
   59.2080   81.1850   32.0970 C   0  0  0  0  0  0  0  0  0  0  0  0
   58.6270   80.1830   31.3490 C   0  0  0  0  0  0  0  0  0  0  0  0
   58.9050   80.1490   29.9930 C   0  0  0  0  0  0  0  0  0  0  0  0
   58.2990   79.1200   29.2280 N   0  0  0  0  0  0  0  0  0  0  0  0
   57.0170   79.0890   28.6380 C   0  0  0  0  0  0  0  0  0  0  0  0
   56.7700   79.8810   27.5070 C   0  0  0  0  0  0  0  0  0  0  0  0
   55.5340   79.8390   26.8530 C   0  0  0  0  0  0  0  0  0  0  0  0
   54.5230   78.9880   27.2970 C   0  0  0  0  0  0  0  0  0  0  0  0
   53.3670   79.0440   26.5710 O   0  0  0  0  0  0  0  0  0  0  0  0
   53.4680   79.5390   25.2260 C   0  0  0  0  0  0  0  0  0  0  0  0
   52.5320   80.7460   25.1110 C   0  0  0  0  0  0  0  0  0  0  0  0
   51.6890   80.5600   23.9580 O   0  0  0  0  0  0  0  0  0  0  0  0
   53.2570   82.1010   24.9520 C   0  0  0  0  0  0  0  0  0  0  0  0
   53.1770   83.1260   26.0020 N   0  0  0  0  0  0  0  0  0  0  0  0
   53.3100   82.6010   27.3530 C   0  0  0  0  0  0  0  0  0  0  0  0
   54.0180   84.2900   25.7700 C   0  0  0  0  0  0  0  0  0  0  0  0
   54.7670   78.1700   28.3960 C   0  0  0  0  0  0  0  0  0  0  0  0
   56.0070   78.2140   29.0500 C   0  0  0  0  0  0  0  0  0  0  0  0
   59.7020   81.0650   29.4260 N   0  0  0  0  0  0  0  0  0  0  0  0
   60.2350   81.9840   30.2400 C   0  0  0  0  0  0  0  0  0  0  0  0
   60.0330   82.0900   31.5590 N   0  0  0  0  0  0  0  0  0  0  0  0
   61.0422   80.3282   37.6016 H   0  0  0  0  0  0  0  0  0  0  0  0
   62.0127   81.1652   36.3429 H   0  0  0  0  0  0  0  0  0  0  0  0
   60.2226   81.3135   36.3429 H   0  0  0  0  0  0  0  0  0  0  0  0
   61.7834   79.8132   33.8285 H   0  0  0  0  0  0  0  0  0  0  0  0
   60.1127   79.1596   33.8518 H   0  0  0  0  0  0  0  0  0  0  0  0
   60.0474   81.6491   35.2754 H   0  0  0  0  0  0  0  0  0  0  0  0
   60.9944   81.9295   33.7679 H   0  0  0  0  0  0  0  0  0  0  0  0
   58.4260   80.4930   33.7020 H   0  0  0  0  0  0  0  0  0  0  0  0
   57.9657   79.4366   31.8133 H   0  0  0  0  0  0  0  0  0  0  0  0
   58.9960   78.6880   28.6300 H   0  0  0  0  0  0  0  0  0  0  0  0
   57.5605   80.5456   27.1283 H   0  0  0  0  0  0  0  0  0  0  0  0
   55.3581   80.4840   25.9795 H   0  0  0  0  0  0  0  0  0  0  0  0
   54.5033   79.8445   25.0145 H   0  0  0  0  0  0  0  0  0  0  0  0
   53.1870   78.7592   24.5029 H   0  0  0  0  0  0  0  0  0  0  0  0
   51.9682   80.7917   26.0544 H   0  0  0  0  0  0  0  0  0  0  0  0
   51.7970   81.3670   23.4180 H   0  0  0  0  0  0  0  0  0  0  0  0
   54.3245   81.8716   24.8185 H   0  0  0  0  0  0  0  0  0  0  0  0
   52.7191   82.5682   24.1139 H   0  0  0  0  0  0  0  0  0  0  0  0
   53.1071   83.4019   28.0792 H   0  0  0  0  0  0  0  0  0  0  0  0
   52.5911   81.7816   27.5004 H   0  0  0  0  0  0  0  0  0  0  0  0
   54.3323   82.2227   27.5004 H   0  0  0  0  0  0  0  0  0  0  0  0
   54.3269   84.7175   26.7353 H   0  0  0  0  0  0  0  0  0  0  0  0
   54.9096   83.9904   25.1996 H   0  0  0  0  0  0  0  0  0  0  0  0
   53.4535   85.0424   25.1996 H   0  0  0  0  0  0  0  0  0  0  0  0
   53.9836   77.4856   28.7536 H   0  0  0  0  0  0  0  0  0  0  0  0
   56.1888   77.5462   29.9050 H   0  0  0  0  0  0  0  0  0  0  0  0
   60.9050   82.7252   29.7798 H   0  0  0  0  0  0  0  0  0  0  0  0
  1  2  1  0
  2  3  1  0
  3  4  1  0
  4  5  1  0
  5  6  1  0
  6  7  1  0
  7  8  2  0
  8  9  1  0
  9 10  1  0
 10 11  1  0
 11 12  2  0
 12 13  1  0
 13 14  1  0
 14 15  1  0
 15 16  1  0
 16 17  1  0
 16 18  1  0
 18 19  1  0
 19 20  1  0
 19 21  1  0
 13 22  2  0
 22 23  1  0
  8 24  1  0
 24 25  2  0
 25 26  1  0
 26  6  2  0
 23 10  2  0
  1 27  1  0
  1 28  1  0
  1 29  1  0
  3 30  1  0
  3 31  1  0
  4 32  1  0
  4 33  1  0
  5 34  1  0
  7 35  1  0
  9 36  1  0
 11 37  1  0
 12 38  1  0
 15 39  1  0
 15 40  1  0
 16 41  1  0
 17 42  1  0
 18 43  1  0
 18 44  1  0
 20 45  1  0
 20 46  1  0
 20 47  1  0
 21 48  1  0
 21 49  1  0
 21 50  1  0
 22 51  1  0
 23 52  1  0
 25 53  1  0
M  END
>  <meeko>  (18) 
{"is_sidechain": false}

>  <smiles>  (18) 
COCCNc1cc(Nc2ccc(OCC(O)CN(C)C)cc2)ncn1

>  <vina_score>  (18) 
-6.700

$$$$

     RDKit          3D

 52 55  0  0  0  0  0  0  0  0999 V2000
   52.3810   82.0740   23.2570 C   0  0  0  0  0  0  0  0  0  0  0  0
   53.3110   80.9960   23.2040 O   0  0  0  0  0  0  0  0  0  0  0  0
   53.2580   80.1820   24.3170 C   0  0  0  0  0  0  0  0  0  0  0  0
   53.6850   78.8750   24.1390 C   0  0  0  0  0  0  0  0  0  0  0  0
   53.6410   78.0070   25.2280 C   0  0  0  0  0  0  0  0  0  0  0  0
   53.1750   78.4730   26.4570 C   0  0  0  0  0  0  0  0  0  0  0  0
   53.0920   77.5770   27.6100 C   0  0  0  0  0  0  0  0  0  0  0  0
   53.9430   77.5780   28.6440 C   0  0  0  0  0  0  0  0  0  0  0  0
   55.0030   78.4440   28.7710 N   0  0  0  0  0  0  0  0  0  0  0  0
   56.2850   78.0420   29.0690 C   0  0  0  0  0  0  0  0  0  0  0  0
   56.6100   76.8590   29.1480 O   0  0  0  0  0  0  0  0  0  0  0  0
   57.1970   79.0770   29.2500 N   0  0  0  0  0  0  0  0  0  0  0  0
   57.4510   80.1260   28.2600 C   0  0  0  0  0  0  0  0  0  0  0  0
   58.8970   80.6150   28.3430 C   0  0  0  0  0  0  0  0  0  0  0  0
   59.2900   80.9300   29.7520 C   0  0  0  0  0  0  0  0  0  0  0  0
   60.3610   81.7380   30.0580 C   0  0  0  0  0  0  0  0  0  0  0  0
   60.7510   82.0150   31.3160 N   0  0  0  0  0  0  0  0  0  0  0  0
   60.0490   81.4540   32.3140 C   0  0  0  0  0  0  0  0  0  0  0  0
   60.4940   81.7810   33.5970 N   0  0  0  0  0  0  0  0  0  0  0  0
   61.0890   80.9850   34.5160 C   0  0  0  0  0  0  0  0  0  0  0  0
   60.6050   80.2300   35.5640 C   0  0  0  0  0  0  0  0  0  0  0  0
   61.7350   79.6290   36.1450 C   0  0  0  0  0  0  0  0  0  0  0  0
   62.8670   79.9670   35.5260 N   0  0  0  0  0  0  0  0  0  0  0  0
   62.4530   80.7890   34.5400 N   0  0  0  0  0  0  0  0  0  0  0  0
   63.4340   81.3570   33.6460 C   0  0  0  0  0  0  0  0  0  0  0  0
   58.9990   80.6440   32.1100 N   0  0  0  0  0  0  0  0  0  0  0  0
   58.6340   80.3790   30.8360 C   0  0  0  0  0  0  0  0  0  0  0  0
   57.4400   79.4690   30.6420 C   0  0  0  0  0  0  0  0  0  0  0  0
   52.7790   79.8050   26.5340 C   0  0  0  0  0  0  0  0  0  0  0  0
   52.7980   80.6670   25.4890 N   0  0  0  0  0  0  0  0  0  0  0  0
   52.1669   82.3222   24.3070 H   0  0  0  0  0  0  0  0  0  0  0  0
   52.8091   82.9527   22.7525 H   0  0  0  0  0  0  0  0  0  0  0  0
   51.4490   81.7794   22.7525 H   0  0  0  0  0  0  0  0  0  0  0  0
   54.0503   78.5311   23.1601 H   0  0  0  0  0  0  0  0  0  0  0  0
   53.9709   76.9633   25.1193 H   0  0  0  0  0  0  0  0  0  0  0  0
   52.2688   76.8476   27.6293 H   0  0  0  0  0  0  0  0  0  0  0  0
   53.7836   76.8386   29.4427 H   0  0  0  0  0  0  0  0  0  0  0  0
   54.8720   79.3960   28.4670 H   0  0  0  0  0  0  0  0  0  0  0  0
   57.2638   79.7242   27.2533 H   0  0  0  0  0  0  0  0  0  0  0  0
   56.7807   80.9736   28.4658 H   0  0  0  0  0  0  0  0  0  0  0  0
   59.5624   79.8305   27.9533 H   0  0  0  0  0  0  0  0  0  0  0  0
   58.9846   81.5351   27.7466 H   0  0  0  0  0  0  0  0  0  0  0  0
   60.9301   82.1823   29.2281 H   0  0  0  0  0  0  0  0  0  0  0  0
   60.3010   82.7630   33.7460 H   0  0  0  0  0  0  0  0  0  0  0  0
   59.5565   80.1213   35.8785 H   0  0  0  0  0  0  0  0  0  0  0  0
   61.6907   78.9551   37.0133 H   0  0  0  0  0  0  0  0  0  0  0  0
   64.2389   81.8231   34.2333 H   0  0  0  0  0  0  0  0  0  0  0  0
   63.8553   80.5631   33.0118 H   0  0  0  0  0  0  0  0  0  0  0  0
   62.9552   82.1176   33.0118 H   0  0  0  0  0  0  0  0  0  0  0  0
   57.6038   78.5558   31.2330 H   0  0  0  0  0  0  0  0  0  0  0  0
   56.5560   80.0373   30.9670 H   0  0  0  0  0  0  0  0  0  0  0  0
   52.4280   80.1822   27.5059 H   0  0  0  0  0  0  0  0  0  0  0  0
  1  2  1  0
  2  3  1  0
  3  4  2  0
  4  5  1  0
  5  6  2  0
  6  7  1  0
  7  8  2  3
  8  9  1  0
  9 10  1  0
 10 11  2  0
 10 12  1  0
 12 13  1  0
 13 14  1  0
 14 15  1  0
 15 16  2  0
 16 17  1  0
 17 18  2  0
 18 19  1  0
 19 20  1  0
 20 21  2  0
 21 22  1  0
 22 23  2  0
 23 24  1  0
 24 25  1  0
 18 26  1  0
 26 27  2  0
 27 28  1  0
  6 29  1  0
 29 30  2  0
 30  3  1  0
 28 12  1  0
 27 15  1  0
 24 20  1  0
  1 31  1  0
  1 32  1  0
  1 33  1  0
  4 34  1  0
  5 35  1  0
  7 36  1  0
  8 37  1  0
  9 38  1  0
 13 39  1  0
 13 40  1  0
 14 41  1  0
 14 42  1  0
 16 43  1  0
 19 44  1  0
 21 45  1  0
 22 46  1  0
 25 47  1  0
 25 48  1  0
 25 49  1  0
 28 50  1  0
 28 51  1  0
 29 52  1  0
M  END
>  <meeko>  (19) 
{"is_sidechain": false}

>  <smiles>  (19) 
COc1ccc(C=CNC(=O)N2CCc3cnc(Nc4ccnn4C)nc3C2)cn1

>  <vina_score>  (19) 
-8.065

$$$$

     RDKit          3D

 66 69  0  0  0  0  0  0  0  0999 V2000
   66.0300   87.4740   39.0390 C   0  0  0  0  0  0  0  0  0  0  0  0
   65.6410   85.7070   39.0290 S   0  0  0  0  0  0  0  0  0  0  0  0
   66.6540   85.2290   37.6130 C   0  0  0  0  0  0  0  0  0  0  0  0
   65.7550   84.7370   36.5980 N   0  0  0  0  0  0  0  0  0  0  0  0
   65.2620   85.4570   35.5260 C   0  0  0  0  0  0  0  0  0  0  0  0
   65.6480   87.0610   35.2060 S   0  0  0  0  0  0  0  0  0  0  0  0
   64.3400   84.6740   34.6540 C   0  0  0  0  0  0  0  0  0  0  0  0
   63.3930   83.8050   35.2050 C   0  0  0  0  0  0  0  0  0  0  0  0
   62.5480   83.0700   34.3660 C   0  0  0  0  0  0  0  0  0  0  0  0
   62.6380   83.1880   32.9730 C   0  0  0  0  0  0  0  0  0  0  0  0
   61.7460   82.4090   32.2060 N   0  0  0  0  0  0  0  0  0  0  0  0
   60.4990   82.7710   31.7270 C   0  0  0  0  0  0  0  0  0  0  0  0
   59.9600   83.8610   31.8920 O   0  0  0  0  0  0  0  0  0  0  0  0
   59.7580   81.7370   30.9410 C   0  0  0  0  0  0  0  0  0  0  0  0
   59.9310   81.6970   29.5530 C   0  0  0  0  0  0  0  0  0  0  0  0
   59.2600   80.7460   28.7700 C   0  0  0  0  0  0  0  0  0  0  0  0
   58.3950   79.8090   29.3450 C   0  0  0  0  0  0  0  0  0  0  0  0
   57.7080   78.8310   28.6210 N   0  0  0  0  0  0  0  0  0  0  0  0
   56.3660   78.4840   28.4950 C   0  0  0  0  0  0  0  0  0  0  0  0
   55.7400   77.7170   29.4020 N   0  0  0  0  0  0  0  0  0  0  0  0
   54.4430   77.4220   29.1780 C   0  0  0  0  0  0  0  0  0  0  0  0
   53.7460   77.8700   28.0880 C   0  0  0  0  0  0  0  0  0  0  0  0
   52.4590   77.5470   27.9110 F   0  0  0  0  0  0  0  0  0  0  0  0
   54.4530   78.6660   27.2160 C   0  0  0  0  0  0  0  0  0  0  0  0
   53.8640   79.2000   25.9900 C   0  0  0  0  0  0  0  0  0  0  0  0
   53.3150   78.5110   24.9260 C   0  0  0  0  0  0  0  0  0  0  0  0
   52.9120   79.3540   23.9350 N   0  0  0  0  0  0  0  0  0  0  0  0
   53.1880   80.5690   24.3580 C   0  0  0  0  0  0  0  0  0  0  0  0
   52.9270   81.7890   23.5500 C   0  0  0  0  0  0  0  0  0  0  0  0
   53.7250   80.5390   25.6340 N   0  0  0  0  0  0  0  0  0  0  0  0
   54.0580   81.6800   26.4900 C   0  0  0  0  0  0  0  0  0  0  0  0
   52.9370   82.7150   26.6270 C   0  0  0  0  0  0  0  0  0  0  0  0
   55.3810   82.3310   26.0860 C   0  0  0  0  0  0  0  0  0  0  0  0
   55.7580   78.9760   27.4010 N   0  0  0  0  0  0  0  0  0  0  0  0
   58.2320   79.8530   30.7370 C   0  0  0  0  0  0  0  0  0  0  0  0
   58.9020   80.8010   31.5160 C   0  0  0  0  0  0  0  0  0  0  0  0
   58.6910   80.7780   32.8420 F   0  0  0  0  0  0  0  0  0  0  0  0
   63.5850   84.0590   32.4300 C   0  0  0  0  0  0  0  0  0  0  0  0
   64.4320   84.7980   33.2640 C   0  0  0  0  0  0  0  0  0  0  0  0
   66.1076   87.8265   40.0781 H   0  0  0  0  0  0  0  0  0  0  0  0
   66.9866   87.6418   38.5225 H   0  0  0  0  0  0  0  0  0  0  0  0
   65.2323   88.0280   38.5225 H   0  0  0  0  0  0  0  0  0  0  0  0
   67.2100   86.0997   37.2352 H   0  0  0  0  0  0  0  0  0  0  0  0
   67.3857   84.4581   37.8963 H   0  0  0  0  0  0  0  0  0  0  0  0
   65.4230   83.7940   36.7590 H   0  0  0  0  0  0  0  0  0  0  0  0
   63.3124   83.6993   36.2969 H   0  0  0  0  0  0  0  0  0  0  0  0
   61.8032   82.3906   34.8061 H   0  0  0  0  0  0  0  0  0  0  0  0
   62.0690   81.4730   31.9840 H   0  0  0  0  0  0  0  0  0  0  0  0
   60.6026   82.4214   29.0691 H   0  0  0  0  0  0  0  0  0  0  0  0
   59.4173   80.7369   27.6813 H   0  0  0  0  0  0  0  0  0  0  0  0
   58.2640   78.1570   28.1140 H   0  0  0  0  0  0  0  0  0  0  0  0
   53.9183   76.7889   29.9086 H   0  0  0  0  0  0  0  0  0  0  0  0
   53.2155   77.4163   24.8842 H   0  0  0  0  0  0  0  0  0  0  0  0
   52.7447   82.6412   24.2212 H   0  0  0  0  0  0  0  0  0  0  0  0
   53.7999   82.0022   22.9154 H   0  0  0  0  0  0  0  0  0  0  0  0
   52.0433   81.6264   22.9154 H   0  0  0  0  0  0  0  0  0  0  0  0
   54.1822   81.2527   27.4960 H   0  0  0  0  0  0  0  0  0  0  0  0
   52.7368   82.8998   27.6927 H   0  0  0  0  0  0  0  0  0  0  0  0
   53.2439   83.6541   26.1433 H   0  0  0  0  0  0  0  0  0  0  0  0
   52.0253   82.3343   26.1433 H   0  0  0  0  0  0  0  0  0  0  0  0
   55.9442   82.6081   26.9893 H   0  0  0  0  0  0  0  0  0  0  0  0
   55.9719   81.6208   25.4890 H   0  0  0  0  0  0  0  0  0  0  0  0
   55.1788   83.2325   25.4890 H   0  0  0  0  0  0  0  0  0  0  0  0
   57.5643   79.1279   31.2253 H   0  0  0  0  0  0  0  0  0  0  0  0
   63.6659   84.1651   31.3381 H   0  0  0  0  0  0  0  0  0  0  0  0
   65.1742   85.4801   32.8237 H   0  0  0  0  0  0  0  0  0  0  0  0
  1  2  1  0
  2  3  1  0
  3  4  1  0
  4  5  1  0
  5  6  2  0
  5  7  1  0
  7  8  1  0
  8  9  2  0
  9 10  1  0
 10 11  1  0
 11 12  1  0
 12 13  2  0
 12 14  1  0
 14 15  1  0
 15 16  2  0
 16 17  1  0
 17 18  1  0
 18 19  1  0
 19 20  2  0
 20 21  1  0
 21 22  2  0
 22 23  1  0
 22 24  1  0
 24 25  1  0
 25 26  2  0
 26 27  1  0
 27 28  2  0
 28 29  1  0
 28 30  1  0
 30 31  1  0
 31 32  1  0
 31 33  1  0
 24 34  2  0
 17 35  2  0
 35 36  1  0
 36 37  1  0
 10 38  2  0
 38 39  1  0
 39  7  2  0
 36 14  2  0
 34 19  1  0
 30 25  1  0
  1 40  1  0
  1 41  1  0
  1 42  1  0
  3 43  1  0
  3 44  1  0
  4 45  1  0
  8 46  1  0
  9 47  1  0
 11 48  1  0
 15 49  1  0
 16 50  1  0
 18 51  1  0
 21 52  1  0
 26 53  1  0
 29 54  1  0
 29 55  1  0
 29 56  1  0
 31 57  1  0
 32 58  1  0
 32 59  1  0
 32 60  1  0
 33 61  1  0
 33 62  1  0
 33 63  1  0
 35 64  1  0
 38 65  1  0
 39 66  1  0
M  END
>  <meeko>  (20) 
{"is_sidechain": false}

>  <smiles>  (20) 
CSCNC(=S)c1ccc(NC(=O)c2ccc(Nc3ncc(F)c(-c4cnc(C)n4C(C)C)n3)cc2F)cc1

>  <vina_score>  (20) 
-8.297

$$$$

     RDKit          3D

 51 52  0  0  0  0  0  0  0  0999 V2000
   53.6350   78.7320   24.3040 C   0  0  0  0  0  0  0  0  0  0  0  0
   54.2870   79.4040   25.5130 C   0  0  2  0  0  0  0  0  0  0  0  0
   53.6370   78.9380   26.7520 N   0  0  0  0  0  0  0  0  0  0  0  0
   54.4270   78.2740   27.7060 C   0  0  0  0  0  0  0  0  0  0  0  0
   55.6610   78.7450   27.9840 N   0  0  0  0  0  0  0  0  0  0  0  0
   56.4340   78.0750   28.8570 C   0  0  0  0  0  0  0  0  0  0  0  0
   57.6850   78.6410   29.0800 N   0  0  0  0  0  0  0  0  0  0  0  0
   58.1230   79.8430   29.6450 C   0  0  0  0  0  0  0  0  0  0  0  0
   58.1150   79.9660   31.0450 C   0  0  0  0  0  0  0  0  0  0  0  0
   58.5630   81.1290   31.6800 C   0  0  0  0  0  0  0  0  0  0  0  0
   59.0370   82.1900   30.9100 C   0  0  0  0  0  0  0  0  0  0  0  0
   59.6220   83.6700   31.7130 S   0  0  0  0  0  0  0  0  0  0  0  0
   59.4930   83.3940   33.2240 N   0  0  0  0  0  0  0  0  0  0  0  0
   58.9860   84.7930   31.0540 O   0  0  0  0  0  0  0  0  0  0  0  0
   61.3530   83.7230   31.3140 C   0  0  0  0  0  0  0  0  0  0  0  0
   62.0910   82.4810   31.7740 C   0  0  0  0  0  0  0  0  0  0  0  0
   62.5360   81.7320   30.6450 O   0  0  0  0  0  0  0  0  0  0  0  0
   59.0550   82.0970   29.5200 C   0  0  0  0  0  0  0  0  0  0  0  0
   58.6070   80.9260   28.8990 C   0  0  0  0  0  0  0  0  0  0  0  0
   56.0380   76.9570   29.4800 N   0  0  0  0  0  0  0  0  0  0  0  0
   54.8100   76.4930   29.1810 C   0  0  0  0  0  0  0  0  0  0  0  0
   53.9590   77.1090   28.2950 C   0  0  0  0  0  0  0  0  0  0  0  0
   52.2530   76.3760   27.9550 Br  0  0  0  0  0  0  0  0  0  0  0  0
   54.2170   80.9700   25.4780 C   0  0  0  0  0  0  0  0  0  0  0  0
   53.1480   81.5110   26.4340 C   0  0  0  0  0  0  0  0  0  0  0  0
   55.5600   81.6490   25.7690 C   0  0  0  0  0  0  0  0  0  0  0  0
   53.8390   81.3680   24.1420 O   0  0  0  0  0  0  0  0  0  0  0  0
   52.9077   77.9824   24.6491 H   0  0  0  0  0  0  0  0  0  0  0  0
   53.1195   79.4905   23.6966 H   0  0  0  0  0  0  0  0  0  0  0  0
   54.4087   78.2397   23.6966 H   0  0  0  0  0  0  0  0  0  0  0  0
   55.3494   79.1205   25.4813 H   0  0  0  0  0  0  0  0  0  0  0  0
   53.1360   79.7090   27.2040 H   0  0  0  0  0  0  0  0  0  0  0  0
   58.3910   77.9540   28.8600 H   0  0  0  0  0  0  0  0  0  0  0  0
   57.7478   79.1280   31.6557 H   0  0  0  0  0  0  0  0  0  0  0  0
   58.5415   81.2057   32.7771 H   0  0  0  0  0  0  0  0  0  0  0  0
   58.5080   83.3570   33.4970 H   0  0  0  0  0  0  0  0  0  0  0  0
   61.4613   83.8145   30.2232 H   0  0  0  0  0  0  0  0  0  0  0  0
   61.7911   84.5861   31.8366 H   0  0  0  0  0  0  0  0  0  0  0  0
   62.9598   82.7771   32.3802 H   0  0  0  0  0  0  0  0  0  0  0  0
   61.4114   81.8589   32.3750 H   0  0  0  0  0  0  0  0  0  0  0  0
   62.9120   80.8940   30.9650 H   0  0  0  0  0  0  0  0  0  0  0  0
   59.4195   82.9396   28.9141 H   0  0  0  0  0  0  0  0  0  0  0  0
   58.6353   80.8540   27.8017 H   0  0  0  0  0  0  0  0  0  0  0  0
   54.4691   75.5701   29.6729 H   0  0  0  0  0  0  0  0  0  0  0  0
   53.4694   81.3483   27.4733 H   0  0  0  0  0  0  0  0  0  0  0  0
   53.0093   82.5878   26.2574 H   0  0  0  0  0  0  0  0  0  0  0  0
   52.1981   80.9851   26.2574 H   0  0  0  0  0  0  0  0  0  0  0  0
   55.7056   81.7226   26.8568 H   0  0  0  0  0  0  0  0  0  0  0  0
   56.3744   81.0543   25.3295 H   0  0  0  0  0  0  0  0  0  0  0  0
   55.5639   82.6574   25.3295 H   0  0  0  0  0  0  0  0  0  0  0  0
   52.9820   81.8270   24.2030 H   0  0  0  0  0  0  0  0  0  0  0  0
  1  2  1  0
  2  3  1  0
  3  4  1  0
  4  5  2  0
  5  6  1  0
  6  7  1  0
  7  8  1  0
  8  9  1  0
  9 10  2  0
 10 11  1  0
 11 12  1  0
 12 13  2  0
 12 14  2  0
 12 15  1  0
 15 16  1  0
 16 17  1  0
 11 18  2  0
 18 19  1  0
  6 20  2  0
 20 21  1  0
 21 22  2  0
 22 23  1  0
  2 24  1  0
 24 25  1  0
 24 26  1  0
 24 27  1  0
 22  4  1  0
 19  8  2  0
  1 28  1  0
  1 29  1  0
  1 30  1  0
  2 31  1  1
  3 32  1  0
  7 33  1  0
  9 34  1  0
 10 35  1  0
 13 36  1  0
 15 37  1  0
 15 38  1  0
 16 39  1  0
 16 40  1  0
 17 41  1  0
 18 42  1  0
 19 43  1  0
 21 44  1  0
 25 45  1  0
 25 46  1  0
 25 47  1  0
 26 48  1  0
 26 49  1  0
 26 50  1  0
 27 51  1  0
M  END
>  <meeko>  (21) 
{"is_sidechain": false}

>  <smiles>  (21) 
C[C@H](Nc1nc(Nc2ccc(S(=N)(=O)CCO)cc2)ncc1Br)C(C)(C)O

>  <vina_score>  (21) 
-7.886

$$$$

     RDKit          3D

 53 56  0  0  0  0  0  0  0  0999 V2000
   52.4350   75.8900   27.6450 C   0  0  0  0  0  0  0  0  0  0  0  0
   53.5680   76.6140   28.3090 C   0  0  0  0  0  0  0  0  0  0  0  0
   54.4690   75.9250   29.1250 C   0  0  0  0  0  0  0  0  0  0  0  0
   55.5440   76.5910   29.7250 C   0  0  0  0  0  0  0  0  0  0  0  0
   55.7330   77.9590   29.5240 C   0  0  0  0  0  0  0  0  0  0  0  0
   56.8120   78.6970   30.0610 N   0  0  0  0  0  0  0  0  0  0  0  0
   57.7630   79.5050   29.4300 C   0  0  0  0  0  0  0  0  0  0  0  0
   58.1850   79.4830   27.8150 S   0  0  0  0  0  0  0  0  0  0  0  0
   58.3410   80.3450   30.3960 N   0  0  0  0  0  0  0  0  0  0  0  0
   59.3860   81.2540   30.2410 C   0  0  0  0  0  0  0  0  0  0  0  0
   60.3970   81.0250   29.5920 O   0  0  0  0  0  0  0  0  0  0  0  0
   59.2420   82.4490   31.0650 C   0  0  0  0  0  0  0  0  0  0  0  0
   58.5620   83.6050   30.7130 C   0  0  0  0  0  0  0  0  0  0  0  0
   58.7230   84.5070   31.7390 N   0  0  0  0  0  0  0  0  0  0  0  0
   58.2190   85.8360   31.8250 C   0  0  0  0  0  0  0  0  0  0  0  0
   58.1850   86.6340   30.6700 C   0  0  0  0  0  0  0  0  0  0  0  0
   57.6960   87.9410   30.7290 C   0  0  0  0  0  0  0  0  0  0  0  0
   57.2390   88.4610   31.9370 C   0  0  0  0  0  0  0  0  0  0  0  0
   57.2680   87.6760   33.0890 C   0  0  0  0  0  0  0  0  0  0  0  0
   57.7560   86.3660   33.0370 C   0  0  0  0  0  0  0  0  0  0  0  0
   59.4550   83.9790   32.7400 N   0  0  0  0  0  0  0  0  0  0  0  0
   59.7920   82.7400   32.3490 C   0  0  0  0  0  0  0  0  0  0  0  0
   60.6030   81.9020   33.2370 C   0  0  0  0  0  0  0  0  0  0  0  0
   60.0190   81.0760   34.2030 C   0  0  0  0  0  0  0  0  0  0  0  0
   60.8140   80.2970   35.0500 C   0  0  0  0  0  0  0  0  0  0  0  0
   62.2100   80.3460   34.9610 C   0  0  0  0  0  0  0  0  0  0  0  0
   63.0600   79.4820   35.8430 C   0  0  0  0  0  0  0  0  0  0  0  0
   62.7990   81.1700   33.9960 C   0  0  0  0  0  0  0  0  0  0  0  0
   62.0020   81.9470   33.1490 C   0  0  0  0  0  0  0  0  0  0  0  0
   54.8550   78.6380   28.6720 C   0  0  0  0  0  0  0  0  0  0  0  0
   53.7800   77.9750   28.0720 C   0  0  0  0  0  0  0  0  0  0  0  0
   51.7710   75.4657   28.4125 H   0  0  0  0  0  0  0  0  0  0  0  0
   51.8678   76.5934   27.0177 H   0  0  0  0  0  0  0  0  0  0  0  0
   52.8351   75.0798   27.0177 H   0  0  0  0  0  0  0  0  0  0  0  0
   54.3320   74.8473   29.2978 H   0  0  0  0  0  0  0  0  0  0  0  0
   56.2460   76.0312   30.3605 H   0  0  0  0  0  0  0  0  0  0  0  0
   57.0740   78.4250   31.0010 H   0  0  0  0  0  0  0  0  0  0  0  0
   57.7040   80.5520   31.1500 H   0  0  0  0  0  0  0  0  0  0  0  0
   57.9973   83.7705   29.7836 H   0  0  0  0  0  0  0  0  0  0  0  0
   58.5455   86.2275   29.7135 H   0  0  0  0  0  0  0  0  0  0  0  0
   57.6719   88.5602   29.8201 H   0  0  0  0  0  0  0  0  0  0  0  0
   56.8552   89.4908   31.9826 H   0  0  0  0  0  0  0  0  0  0  0  0
   56.9058   88.0884   34.0423 H   0  0  0  0  0  0  0  0  0  0  0  0
   57.7764   85.7510   33.9488 H   0  0  0  0  0  0  0  0  0  0  0  0
   58.9237   81.0387   34.2975 H   0  0  0  0  0  0  0  0  0  0  0  0
   60.3379   79.6400   35.7927 H   0  0  0  0  0  0  0  0  0  0  0  0
   62.8400   79.7057   36.8973 H   0  0  0  0  0  0  0  0  0  0  0  0
   62.8417   78.4233   35.6395 H   0  0  0  0  0  0  0  0  0  0  0  0
   64.1222   79.6830   35.6395 H   0  0  0  0  0  0  0  0  0  0  0  0
   63.8944   81.2070   33.9029 H   0  0  0  0  0  0  0  0  0  0  0  0
   62.4785   82.6016   32.4044 H   0  0  0  0  0  0  0  0  0  0  0  0
   55.0126   79.7080   28.4715 H   0  0  0  0  0  0  0  0  0  0  0  0
   53.0974   78.5277   27.4098 H   0  0  0  0  0  0  0  0  0  0  0  0
  1  2  1  0
  2  3  1  0
  3  4  2  0
  4  5  1  0
  5  6  1  0
  6  7  1  0
  7  8  2  0
  7  9  1  0
  9 10  1  0
 10 11  2  0
 10 12  1  0
 12 13  2  0
 13 14  1  0
 14 15  1  0
 15 16  2  0
 16 17  1  0
 17 18  2  0
 18 19  1  0
 19 20  2  0
 14 21  1  0
 21 22  2  0
 22 23  1  0
 23 24  1  0
 24 25  2  0
 25 26  1  0
 26 27  1  0
 26 28  2  0
 28 29  1  0
  5 30  2  0
 30 31  1  0
 31  2  2  0
 22 12  1  0
 29 23  2  0
 20 15  1  0
  1 32  1  0
  1 33  1  0
  1 34  1  0
  3 35  1  0
  4 36  1  0
  6 37  1  0
  9 38  1  0
 13 39  1  0
 16 40  1  0
 17 41  1  0
 18 42  1  0
 19 43  1  0
 20 44  1  0
 24 45  1  0
 25 46  1  0
 27 47  1  0
 27 48  1  0
 27 49  1  0
 28 50  1  0
 29 51  1  0
 30 52  1  0
 31 53  1  0
M  END
>  <meeko>  (22) 
{"is_sidechain": false}

>  <smiles>  (22) 
Cc1ccc(NC(=S)NC(=O)c2cn(-c3ccccc3)nc2-c2ccc(C)cc2)cc1

>  <vina_score>  (22) 
-8.412

$$$$

     RDKit          3D

 28 30  0  0  0  0  0  0  0  0999 V2000
   52.6400   76.8560   28.0200 C   0  0  0  0  0  0  0  0  0  0  0  0
   53.8760   77.6700   28.1170 C   0  0  0  0  0  0  0  0  0  0  0  0
   54.7350   77.4990   29.1770 N   0  0  0  0  0  0  0  0  0  0  0  0
   55.7260   78.3340   28.9620 C   0  0  0  0  0  0  0  0  0  0  0  0
   56.9080   78.5870   29.7140 C   0  0  0  0  0  0  0  0  0  0  0  0
   57.8100   79.4820   29.2660 C   0  0  0  0  0  0  0  0  0  0  0  0
   57.6090   80.2000   28.0190 C   0  0  0  0  0  0  0  0  0  0  0  0
   56.4900   79.9750   27.3100 C   0  0  0  0  0  0  0  0  0  0  0  0
   55.5460   79.0560   27.7840 N   0  0  0  0  0  0  0  0  0  0  0  0
   54.3280   78.6620   27.2570 C   0  0  0  0  0  0  0  0  0  0  0  0
   53.7240   79.1900   26.0460 C   0  0  0  0  0  0  0  0  0  0  0  0
   53.6850   78.4700   24.8740 C   0  0  0  0  0  0  0  0  0  0  0  0
   53.0930   79.1100   23.8160 C   0  0  0  0  0  0  0  0  0  0  0  0
   52.5840   80.3520   23.8940 N   0  0  0  0  0  0  0  0  0  0  0  0
   52.7010   80.9750   25.0700 C   0  0  0  0  0  0  0  0  0  0  0  0
   52.1850   82.2490   25.1710 N   0  0  0  0  0  0  0  0  0  0  0  0
   53.2410   80.4390   26.1650 N   0  0  0  0  0  0  0  0  0  0  0  0
   52.2778   76.6175   29.0309 H   0  0  0  0  0  0  0  0  0  0  0  0
   51.8688   77.4235   27.4786 H   0  0  0  0  0  0  0  0  0  0  0  0
   52.8567   75.9233   27.4786 H   0  0  0  0  0  0  0  0  0  0  0  0
   57.0846   78.0527   30.6592 H   0  0  0  0  0  0  0  0  0  0  0  0
   58.7179   79.6732   29.8569 H   0  0  0  0  0  0  0  0  0  0  0  0
   58.3619   80.9173   27.6605 H   0  0  0  0  0  0  0  0  0  0  0  0
   56.3168   80.5090   26.3640 H   0  0  0  0  0  0  0  0  0  0  0  0
   54.0990   77.4542   24.7919 H   0  0  0  0  0  0  0  0  0  0  0  0
   53.0313   78.5802   22.8540 H   0  0  0  0  0  0  0  0  0  0  0  0
   51.1850   82.2070   25.3020 H   0  0  0  0  0  0  0  0  0  0  0  0
   52.7230   82.7860   25.8360 H   0  0  0  0  0  0  0  0  0  0  0  0
  1  2  1  0
  2  3  1  0
  3  4  2  0
  4  5  1  0
  5  6  2  0
  6  7  1  0
  7  8  2  0
  8  9  1  0
  9 10  1  0
 10 11  1  0
 11 12  1  0
 12 13  2  0
 13 14  1  0
 14 15  2  0
 15 16  1  0
 15 17  1  0
 10  2  2  0
 17 11  2  0
  9  4  1  0
  1 18  1  0
  1 19  1  0
  1 20  1  0
  5 21  1  0
  6 22  1  0
  7 23  1  0
  8 24  1  0
 12 25  1  0
 13 26  1  0
 16 27  1  0
 16 28  1  0
M  END
>  <meeko>  (23) 
{"is_sidechain": false}

>  <smiles>  (23) 
Cc1nc2ccccn2c1-c1ccnc(N)n1

>  <vina_score>  (23) 
-7.117

$$$$

     RDKit          3D

 51 53  0  0  0  0  0  0  0  0999 V2000
   52.7610   81.6310   24.0840 C   0  0  0  0  0  0  0  0  0  0  0  0
   53.1830   80.3880   24.7810 C   0  0  0  0  0  0  0  0  0  0  0  0
   52.9350   79.1720   24.3430 N   0  0  0  0  0  0  0  0  0  0  0  0
   53.4530   78.3310   25.2800 C   0  0  0  0  0  0  0  0  0  0  0  0
   54.0480   79.0220   26.3190 C   0  0  0  0  0  0  0  0  0  0  0  0
   54.7040   78.4750   27.4970 C   0  0  0  0  0  0  0  0  0  0  0  0
   54.0350   77.6570   28.3740 C   0  0  0  0  0  0  0  0  0  0  0  0
   54.7690   77.2350   29.4510 C   0  0  0  0  0  0  0  0  0  0  0  0
   56.0490   77.5910   29.6590 N   0  0  0  0  0  0  0  0  0  0  0  0
   56.6180   78.4100   28.7620 C   0  0  0  0  0  0  0  0  0  0  0  0
   57.9350   78.8440   28.8880 N   0  0  0  0  0  0  0  0  0  0  0  0
   58.5620   79.8570   29.6210 C   0  0  0  0  0  0  0  0  0  0  0  0
   58.4140   79.8570   31.0200 C   0  0  0  0  0  0  0  0  0  0  0  0
   58.9900   80.8540   31.8140 C   0  0  0  0  0  0  0  0  0  0  0  0
   59.7100   81.8860   31.2140 C   0  0  0  0  0  0  0  0  0  0  0  0
   60.3360   82.9200   32.0710 C   0  0  0  0  0  0  0  0  0  0  0  0
   61.4500   82.6750   32.5320 O   0  0  0  0  0  0  0  0  0  0  0  0
   59.6550   84.1140   32.3040 N   0  0  0  0  0  0  0  0  0  0  0  0
   58.2180   84.2900   32.1450 C   0  0  0  0  0  0  0  0  0  0  0  0
   60.3530   85.1740   33.0080 C   0  0  0  0  0  0  0  0  0  0  0  0
   59.8860   81.8960   29.8300 C   0  0  0  0  0  0  0  0  0  0  0  0
   59.3040   80.8940   29.0440 C   0  0  0  0  0  0  0  0  0  0  0  0
   55.9800   78.8620   27.6720 N   0  0  0  0  0  0  0  0  0  0  0  0
   53.8900   80.3540   25.9760 N   0  0  0  0  0  0  0  0  0  0  0  0
   54.3900   81.5470   26.6620 C   0  0  0  0  0  0  0  0  0  0  0  0
   55.5460   82.2100   25.9120 C   0  0  0  0  0  0  0  0  0  0  0  0
   53.3100   82.5510   27.0730 C   0  0  0  0  0  0  0  0  0  0  0  0
   52.5005   82.3982   24.8280 H   0  0  0  0  0  0  0  0  0  0  0  0
   53.5855   81.9961   23.4541 H   0  0  0  0  0  0  0  0  0  0  0  0
   51.8846   81.4186   23.4541 H   0  0  0  0  0  0  0  0  0  0  0  0
   53.4040   77.2339   25.2178 H   0  0  0  0  0  0  0  0  0  0  0  0
   52.9861   77.3621   28.2227 H   0  0  0  0  0  0  0  0  0  0  0  0
   54.2866   76.5708   30.1832 H   0  0  0  0  0  0  0  0  0  0  0  0
   58.5000   78.3590   28.2060 H   0  0  0  0  0  0  0  0  0  0  0  0
   57.8328   79.0557   31.4997 H   0  0  0  0  0  0  0  0  0  0  0  0
   58.8753   80.8239   32.9076 H   0  0  0  0  0  0  0  0  0  0  0  0
   57.7439   84.3481   33.1359 H   0  0  0  0  0  0  0  0  0  0  0  0
   58.0216   85.2189   31.5895 H   0  0  0  0  0  0  0  0  0  0  0  0
   57.8032   83.4359   31.5895 H   0  0  0  0  0  0  0  0  0  0  0  0
   60.2527   85.0217   34.0928 H   0  0  0  0  0  0  0  0  0  0  0  0
   61.4178   85.1579   32.7324 H   0  0  0  0  0  0  0  0  0  0  0  0
   59.9176   86.1458   32.7324 H   0  0  0  0  0  0  0  0  0  0  0  0
   60.4816   82.6905   29.3566 H   0  0  0  0  0  0  0  0  0  0  0  0
   59.4324   80.9224   27.9519 H   0  0  0  0  0  0  0  0  0  0  0  0
   54.7911   81.1684   27.6137 H   0  0  0  0  0  0  0  0  0  0  0  0
   56.2644   82.6220   26.6360 H   0  0  0  0  0  0  0  0  0  0  0  0
   56.0494   81.4633   25.2803 H   0  0  0  0  0  0  0  0  0  0  0  0
   55.1557   83.0215   25.2803 H   0  0  0  0  0  0  0  0  0  0  0  0
   53.2553   82.6019   28.1705 H   0  0  0  0  0  0  0  0  0  0  0  0
   53.5609   83.5441   26.6719 H   0  0  0  0  0  0  0  0  0  0  0  0
   52.3378   82.2285   26.6719 H   0  0  0  0  0  0  0  0  0  0  0  0
  1  2  1  0
  2  3  2  0
  3  4  1  0
  4  5  2  0
  5  6  1  0
  6  7  1  0
  7  8  2  0
  8  9  1  0
  9 10  2  0
 10 11  1  0
 11 12  1  0
 12 13  1  0
 13 14  2  0
 14 15  1  0
 15 16  1  0
 16 17  2  0
 16 18  1  0
 18 19  1  0
 18 20  1  0
 15 21  2  0
 21 22  1  0
 10 23  1  0
  5 24  1  0
 24 25  1  0
 25 26  1  0
 25 27  1  0
 24  2  1  0
 23  6  2  0
 22 12  2  0
  1 28  1  0
  1 29  1  0
  1 30  1  0
  4 31  1  0
  7 32  1  0
  8 33  1  0
 11 34  1  0
 13 35  1  0
 14 36  1  0
 19 37  1  0
 19 38  1  0
 19 39  1  0
 20 40  1  0
 20 41  1  0
 20 42  1  0
 21 43  1  0
 22 44  1  0
 25 45  1  0
 26 46  1  0
 26 47  1  0
 26 48  1  0
 27 49  1  0
 27 50  1  0
 27 51  1  0
M  END
>  <meeko>  (24) 
{"is_sidechain": false}

>  <smiles>  (24) 
Cc1ncc(-c2ccnc(Nc3ccc(C(=O)N(C)C)cc3)n2)n1C(C)C

>  <vina_score>  (24) 
-8.787

$$$$

     RDKit          3D

 59 61  0  0  0  0  0  0  0  0999 V2000
   62.1310   80.0130   36.1590 C   0  0  0  0  0  0  0  0  0  0  0  0
   61.0010   80.3260   35.2460 C   0  0  0  0  0  0  0  0  0  0  0  0
   59.7250   80.2380   35.5600 N   0  0  0  0  0  0  0  0  0  0  0  0
   59.0400   80.6180   34.4370 C   0  0  0  0  0  0  0  0  0  0  0  0
   59.8980   80.9050   33.3960 C   0  0  0  0  0  0  0  0  0  0  0  0
   59.6010   81.3110   32.0350 C   0  0  0  0  0  0  0  0  0  0  0  0
   59.8740   82.5770   31.5760 C   0  0  0  0  0  0  0  0  0  0  0  0
   59.5400   82.8010   30.2680 C   0  0  0  0  0  0  0  0  0  0  0  0
   58.9830   81.8670   29.4750 N   0  0  0  0  0  0  0  0  0  0  0  0
   58.7580   80.6560   30.0050 C   0  0  0  0  0  0  0  0  0  0  0  0
   58.1930   79.6190   29.2690 N   0  0  0  0  0  0  0  0  0  0  0  0
   57.0670   79.5050   28.4490 C   0  0  0  0  0  0  0  0  0  0  0  0
   56.0620   78.5910   28.8140 C   0  0  0  0  0  0  0  0  0  0  0  0
   54.9140   78.4150   28.0340 C   0  0  0  0  0  0  0  0  0  0  0  0
   54.7640   79.1540   26.8630 C   0  0  0  0  0  0  0  0  0  0  0  0
   53.3150   78.9530   25.8600 S   0  0  0  0  0  0  0  0  0  0  0  0
   52.2290   79.6650   26.4950 O   0  0  0  0  0  0  0  0  0  0  0  0
   53.2040   77.5600   25.4880 O   0  0  0  0  0  0  0  0  0  0  0  0
   53.7060   79.8210   24.4780 N   0  0  0  0  0  0  0  0  0  0  0  0
   52.6550   80.1970   23.5310 C   0  0  0  0  0  0  0  0  0  0  0  0
   52.8420   81.6480   23.1070 C   0  0  0  0  0  0  0  0  0  0  0  0
   52.7100   82.6130   24.2850 C   0  0  0  0  0  0  0  0  0  0  0  0
   53.9550   82.6950   24.9820 O   0  0  0  0  0  0  0  0  0  0  0  0
   53.9250   83.5450   26.1330 C   0  0  0  0  0  0  0  0  0  0  0  0
   53.3090   82.7390   27.2700 C   0  0  0  0  0  0  0  0  0  0  0  0
   55.3410   83.9780   26.4960 C   0  0  0  0  0  0  0  0  0  0  0  0
   55.7370   80.0780   26.4830 C   0  0  0  0  0  0  0  0  0  0  0  0
   56.8810   80.2430   27.2730 C   0  0  0  0  0  0  0  0  0  0  0  0
   59.0580   80.3450   31.2740 N   0  0  0  0  0  0  0  0  0  0  0  0
   61.1550   80.7600   33.9480 N   0  0  0  0  0  0  0  0  0  0  0  0
   62.4110   81.0490   33.2970 C   0  0  0  0  0  0  0  0  0  0  0  0
   61.7958   80.1059   37.2026 H   0  0  0  0  0  0  0  0  0  0  0  0
   62.4771   78.9852   35.9751 H   0  0  0  0  0  0  0  0  0  0  0  0
   62.9566   80.7163   35.9751 H   0  0  0  0  0  0  0  0  0  0  0  0
   57.9440   80.6858   34.3731 H   0  0  0  0  0  0  0  0  0  0  0  0
   60.3268   83.3519   32.2119 H   0  0  0  0  0  0  0  0  0  0  0  0
   59.7370   83.7961   29.8426 H   0  0  0  0  0  0  0  0  0  0  0  0
   58.7410   78.7840   29.4200 H   0  0  0  0  0  0  0  0  0  0  0  0
   56.1815   78.0007   29.7345 H   0  0  0  0  0  0  0  0  0  0  0  0
   54.1373   77.6998   28.3426 H   0  0  0  0  0  0  0  0  0  0  0  0
   54.6430   79.6340   24.1260 H   0  0  0  0  0  0  0  0  0  0  0  0
   52.7110   79.5470   22.6453 H   0  0  0  0  0  0  0  0  0  0  0  0
   51.6725   80.0815   24.0120 H   0  0  0  0  0  0  0  0  0  0  0  0
   53.8430   81.7623   22.6654 H   0  0  0  0  0  0  0  0  0  0  0  0
   52.0543   81.8923   22.3791 H   0  0  0  0  0  0  0  0  0  0  0  0
   52.4335   83.6101   23.9117 H   0  0  0  0  0  0  0  0  0  0  0  0
   51.9319   82.2466   24.9708 H   0  0  0  0  0  0  0  0  0  0  0  0
   53.3348   84.4526   25.9382 H   0  0  0  0  0  0  0  0  0  0  0  0
   53.6307   83.1599   28.2340 H   0  0  0  0  0  0  0  0  0  0  0  0
   52.2122   82.7830   27.1984 H   0  0  0  0  0  0  0  0  0  0  0  0
   53.6394   81.6922   27.1984 H   0  0  0  0  0  0  0  0  0  0  0  0
   55.4454   84.0099   27.5906 H   0  0  0  0  0  0  0  0  0  0  0  0
   56.0623   83.2594   26.0797 H   0  0  0  0  0  0  0  0  0  0  0  0
   55.5370   84.9771   26.0797 H   0  0  0  0  0  0  0  0  0  0  0  0
   55.6063   80.6739   25.5676 H   0  0  0  0  0  0  0  0  0  0  0  0
   57.6494   80.9669   26.9639 H   0  0  0  0  0  0  0  0  0  0  0  0
   63.1856   81.2272   34.0574 H   0  0  0  0  0  0  0  0  0  0  0  0
   62.7035   80.1947   32.6688 H   0  0  0  0  0  0  0  0  0  0  0  0
   62.3007   81.9452   32.6688 H   0  0  0  0  0  0  0  0  0  0  0  0
  1  2  1  0
  2  3  2  0
  3  4  1  0
  4  5  2  0
  5  6  1  0
  6  7  1  0
  7  8  2  0
  8  9  1  0
  9 10  2  0
 10 11  1  0
 11 12  1  0
 12 13  1  0
 13 14  2  0
 14 15  1  0
 15 16  1  0
 16 17  2  0
 16 18  2  0
 16 19  1  0
 19 20  1  0
 20 21  1  0
 21 22  1  0
 22 23  1  0
 23 24  1  0
 24 25  1  0
 24 26  1  0
 15 27  2  0
 27 28  1  0
 10 29  1  0
  5 30  1  0
 30 31  1  0
 30  2  1  0
 29  6  2  0
 28 12  2  0
  1 32  1  0
  1 33  1  0
  1 34  1  0
  4 35  1  0
  7 36  1  0
  8 37  1  0
 11 38  1  0
 13 39  1  0
 14 40  1  0
 19 41  1  0
 20 42  1  0
 20 43  1  0
 21 44  1  0
 21 45  1  0
 22 46  1  0
 22 47  1  0
 24 48  1  0
 25 49  1  0
 25 50  1  0
 25 51  1  0
 26 52  1  0
 26 53  1  0
 26 54  1  0
 27 55  1  0
 28 56  1  0
 31 57  1  0
 31 58  1  0
 31 59  1  0
M  END
>  <meeko>  (25) 
{"is_sidechain": false}

>  <smiles>  (25) 
Cc1ncc(-c2ccnc(Nc3ccc(S(=O)(=O)NCCCOC(C)C)cc3)n2)n1C

>  <vina_score>  (25) 
-7.664

$$$$

     RDKit          3D

 64 68  0  0  0  0  0  0  0  0999 V2000
   57.4420   78.9080   30.1770 C   0  0  0  0  0  0  0  0  0  0  0  0
   58.2900   80.0850   29.8530 C   0  0  0  0  0  0  0  0  0  0  0  0
   58.6200   80.4470   28.6310 N   0  0  0  0  0  0  0  0  0  0  0  0
   59.3670   81.5770   28.7720 C   0  0  0  0  0  0  0  0  0  0  0  0
   59.5220   81.9290   30.0990 C   0  0  0  0  0  0  0  0  0  0  0  0
   60.2460   83.0660   30.6440 C   0  0  0  0  0  0  0  0  0  0  0  0
   61.6190   83.0710   30.7200 C   0  0  0  0  0  0  0  0  0  0  0  0
   62.1710   84.2170   31.2290 C   0  0  0  0  0  0  0  0  0  0  0  0
   61.4420   85.2750   31.6250 N   0  0  0  0  0  0  0  0  0  0  0  0
   60.1100   85.1860   31.5070 C   0  0  0  0  0  0  0  0  0  0  0  0
   59.2750   86.2490   31.8390 N   0  0  0  0  0  0  0  0  0  0  0  0
   58.8380   87.2970   31.0070 C   0  0  0  0  0  0  0  0  0  0  0  0
   57.8940   87.0610   30.0750 N   0  0  0  0  0  0  0  0  0  0  0  0
   57.4820   88.0840   29.2990 C   0  0  0  0  0  0  0  0  0  0  0  0
   56.4280   87.7960   28.2980 C   0  0  0  0  0  0  0  0  0  0  0  0
   55.4130   88.6970   28.0340 C   0  0  0  0  0  0  0  0  0  0  0  0
   54.4960   88.3180   27.0900 C   0  0  0  0  0  0  0  0  0  0  0  0
   54.5480   87.1450   26.4360 N   0  0  0  0  0  0  0  0  0  0  0  0
   55.5600   86.3170   26.7360 C   0  0  0  0  0  0  0  0  0  0  0  0
   55.5650   85.1180   26.0310 N   0  0  0  0  0  0  0  0  0  0  0  0
   55.0300   83.8490   26.2730 C   0  0  0  0  0  0  0  0  0  0  0  0
   55.8950   82.7430   26.2540 C   0  0  0  0  0  0  0  0  0  0  0  0
   55.4230   81.4430   26.4730 C   0  0  0  0  0  0  0  0  0  0  0  0
   54.0660   81.2180   26.7060 C   0  0  0  0  0  0  0  0  0  0  0  0
   53.6070   79.8210   26.9300 C   0  0  0  0  0  0  0  0  0  0  0  0
   54.3300   79.0480   27.7950 N   0  0  0  0  0  0  0  0  0  0  0  0
   52.5990   79.3790   26.3930 O   0  0  0  0  0  0  0  0  0  0  0  0
   53.1920   82.3080   26.7410 C   0  0  0  0  0  0  0  0  0  0  0  0
   53.6740   83.6050   26.5200 C   0  0  0  0  0  0  0  0  0  0  0  0
   56.4950   86.6070   27.6470 N   0  0  0  0  0  0  0  0  0  0  0  0
   57.9720   89.3350   29.3870 N   0  0  0  0  0  0  0  0  0  0  0  0
   58.9090   89.5460   30.3300 C   0  0  0  0  0  0  0  0  0  0  0  0
   59.3810   88.5690   31.1840 C   0  0  0  0  0  0  0  0  0  0  0  0
   60.6150   88.9610   32.4030 S   0  0  0  0  0  0  0  0  0  0  0  0
   59.4810   84.1070   31.0170 N   0  0  0  0  0  0  0  0  0  0  0  0
   58.8410   80.9440   30.7950 N   0  0  0  0  0  0  0  0  0  0  0  0
   58.7260   80.7520   32.2410 C   0  0  0  0  0  0  0  0  0  0  0  0
   60.0590   80.6070   32.9800 C   0  0  0  0  0  0  0  0  0  0  0  0
   57.8100   81.7860   32.8950 C   0  0  0  0  0  0  0  0  0  0  0  0
   57.3650   78.8011   31.2691 H   0  0  0  0  0  0  0  0  0  0  0  0
   56.4380   79.0510   29.7508 H   0  0  0  0  0  0  0  0  0  0  0  0
   57.8955   78.0009   29.7508 H   0  0  0  0  0  0  0  0  0  0  0  0
   59.7954   82.1415   27.9307 H   0  0  0  0  0  0  0  0  0  0  0  0
   62.2304   82.2161   30.3954 H   0  0  0  0  0  0  0  0  0  0  0  0
   63.2659   84.2744   31.3182 H   0  0  0  0  0  0  0  0  0  0  0  0
   59.5320   86.5630   32.7660 H   0  0  0  0  0  0  0  0  0  0  0  0
   55.3458   89.6644   28.5533 H   0  0  0  0  0  0  0  0  0  0  0  0
   53.6738   89.0099   26.8547 H   0  0  0  0  0  0  0  0  0  0  0  0
   56.1170   85.2340   25.1950 H   0  0  0  0  0  0  0  0  0  0  0  0
   56.9667   82.9013   26.0629 H   0  0  0  0  0  0  0  0  0  0  0  0
   56.1248   80.5960   26.4613 H   0  0  0  0  0  0  0  0  0  0  0  0
   54.9780   79.4490   28.4590 H   0  0  0  0  0  0  0  0  0  0  0  0
   53.9230   78.1510   28.0290 H   0  0  0  0  0  0  0  0  0  0  0  0
   52.1226   82.1473   26.9426 H   0  0  0  0  0  0  0  0  0  0  0  0
   52.9708   84.4506   26.5411 H   0  0  0  0  0  0  0  0  0  0  0  0
   59.3246   90.5599   30.4263 H   0  0  0  0  0  0  0  0  0  0  0  0
   61.4520   89.5870   31.5580 H   0  0  0  0  0  0  0  0  0  0  0  0
   58.2437   79.7692   32.3480 H   0  0  0  0  0  0  0  0  0  0  0  0
   59.8806   80.6264   34.0653 H   0  0  0  0  0  0  0  0  0  0  0  0
   60.5299   79.6523   32.7028 H   0  0  0  0  0  0  0  0  0  0  0  0
   60.7242   81.4381   32.7028 H   0  0  0  0  0  0  0  0  0  0  0  0
   57.8845   81.7019   33.9892 H   0  0  0  0  0  0  0  0  0  0  0  0
   58.1154   82.7957   32.5832 H   0  0  0  0  0  0  0  0  0  0  0  0
   56.7708   81.6046   32.5832 H   0  0  0  0  0  0  0  0  0  0  0  0
  1  2  1  0
  2  3  2  0
  3  4  1  0
  4  5  2  0
  5  6  1  0
  6  7  1  0
  7  8  2  0
  8  9  1  0
  9 10  2  0
 10 11  1  0
 11 12  1  0
 12 13  2  0
 13 14  1  0
 14 15  1  0
 15 16  1  0
 16 17  2  0
 17 18  1  0
 18 19  2  0
 19 20  1  0
 20 21  1  0
 21 22  1  0
 22 23  2  0
 23 24  1  0
 24 25  1  0
 25 26  1  0
 25 27  2  0
 24 28  2  0
 28 29  1  0
 19 30  1  0
 14 31  2  0
 31 32  1  0
 32 33  2  0
 33 34  1  0
 10 35  1  0
  5 36  1  0
 36 37  1  0
 37 38  1  0
 37 39  1  0
 36  2  1  0
 35  6  2  0
 33 12  1  0
 30 15  2  0
 29 21  2  0
  1 40  1  0
  1 41  1  0
  1 42  1  0
  4 43  1  0
  7 44  1  0
  8 45  1  0
 11 46  1  0
 16 47  1  0
 17 48  1  0
 20 49  1  0
 22 50  1  0
 23 51  1  0
 26 52  1  0
 26 53  1  0
 28 54  1  0
 29 55  1  0
 32 56  1  0
 34 57  1  0
 37 58  1  0
 38 59  1  0
 38 60  1  0
 38 61  1  0
 39 62  1  0
 39 63  1  0
 39 64  1  0
M  END
>  <meeko>  (26) 
{"is_sidechain": false}

>  <smiles>  (26) 
Cc1ncc(-c2ccnc(Nc3nc(-c4ccnc(Nc5ccc(C(N)=O)cc5)n4)ncc3S)n2)n1C(C)C

>  <vina_score>  (26) 
-7.740

$$$$

     RDKit          3D

 68 70  0  0  0  0  0  0  0  0999 V2000
   52.7820   81.6840   24.1040 C   0  0  0  0  0  0  0  0  0  0  0  0
   53.1950   80.4250   24.7790 C   0  0  0  0  0  0  0  0  0  0  0  0
   52.9610   79.2200   24.3050 N   0  0  0  0  0  0  0  0  0  0  0  0
   53.4720   78.3570   25.2260 C   0  0  0  0  0  0  0  0  0  0  0  0
   54.0300   79.0220   26.3020 C   0  0  0  0  0  0  0  0  0  0  0  0
   54.6460   78.4450   27.4890 C   0  0  0  0  0  0  0  0  0  0  0  0
   55.9170   78.8390   27.7190 N   0  0  0  0  0  0  0  0  0  0  0  0
   56.5260   78.3660   28.8220 C   0  0  0  0  0  0  0  0  0  0  0  0
   57.8320   78.8120   29.0000 N   0  0  0  0  0  0  0  0  0  0  0  0
   58.4120   79.8640   29.7170 C   0  0  0  0  0  0  0  0  0  0  0  0
   59.3560   80.6740   29.0700 C   0  0  0  0  0  0  0  0  0  0  0  0
   59.9920   81.7310   29.7320 C   0  0  0  0  0  0  0  0  0  0  0  0
   59.7070   82.0080   31.0750 C   0  0  0  0  0  0  0  0  0  0  0  0
   60.4110   83.1540   31.7800 C   0  0  0  0  0  0  0  0  0  0  0  0
   61.5640   83.6970   31.0220 N   0  0  0  0  0  0  0  0  0  0  0  0
   62.0490   85.0020   31.4940 C   0  0  0  0  0  0  0  0  0  0  0  0
   60.8920   86.0010   31.3960 C   0  0  0  0  0  0  0  0  0  0  0  0
   63.2290   85.5100   30.6640 C   0  0  0  0  0  0  0  0  0  0  0  0
   60.8110   82.7700   33.2070 C   0  0  0  0  0  0  0  0  0  0  0  0
   60.3150   83.2500   34.2220 O   0  0  0  0  0  0  0  0  0  0  0  0
   61.8930   81.7210   33.3690 C   0  0  0  0  0  0  0  0  0  0  0  0
   62.8490   81.7340   32.5980 O   0  0  0  0  0  0  0  0  0  0  0  0
   61.7050   80.6730   34.4500 C   0  0  0  0  0  0  0  0  0  0  0  0
   63.0600   80.2320   34.9900 C   0  0  0  0  0  0  0  0  0  0  0  0
   60.8720   79.4830   33.9880 C   0  0  0  0  0  0  0  0  0  0  0  0
   58.7700   81.1980   31.7290 C   0  0  0  0  0  0  0  0  0  0  0  0
   58.1380   80.1400   31.0580 C   0  0  0  0  0  0  0  0  0  0  0  0
   55.9340   77.5230   29.6830 N   0  0  0  0  0  0  0  0  0  0  0  0
   54.6600   77.1610   29.4240 C   0  0  0  0  0  0  0  0  0  0  0  0
   53.9620   77.6010   28.3340 C   0  0  0  0  0  0  0  0  0  0  0  0
   52.6980   77.2150   28.1200 F   0  0  0  0  0  0  0  0  0  0  0  0
   53.8830   80.3630   25.9840 N   0  0  0  0  0  0  0  0  0  0  0  0
   54.3850   81.5410   26.6950 C   0  0  0  0  0  0  0  0  0  0  0  0
   55.5580   82.2030   25.9730 C   0  0  0  0  0  0  0  0  0  0  0  0
   53.3110   82.5480   27.1120 C   0  0  0  0  0  0  0  0  0  0  0  0
   52.5334   82.4417   24.8617 H   0  0  0  0  0  0  0  0  0  0  0  0
   53.6069   82.0507   23.4755 H   0  0  0  0  0  0  0  0  0  0  0  0
   51.9001   81.4908   23.4755 H   0  0  0  0  0  0  0  0  0  0  0  0
   53.4442   77.2619   25.1259 H   0  0  0  0  0  0  0  0  0  0  0  0
   58.4390   78.3000   28.3780 H   0  0  0  0  0  0  0  0  0  0  0  0
   59.6028   80.4742   28.0168 H   0  0  0  0  0  0  0  0  0  0  0  0
   60.7231   82.3504   29.1918 H   0  0  0  0  0  0  0  0  0  0  0  0
   59.6762   83.9707   31.8354 H   0  0  0  0  0  0  0  0  0  0  0  0
   61.2820   83.7860   30.0400 H   0  0  0  0  0  0  0  0  0  0  0  0
   62.3997   84.8940   32.5310 H   0  0  0  0  0  0  0  0  0  0  0  0
   60.5648   86.2835   32.4075 H   0  0  0  0  0  0  0  0  0  0  0  0
   61.2271   86.8983   30.8551 H   0  0  0  0  0  0  0  0  0  0  0  0
   60.0532   85.5387   30.8551 H   0  0  0  0  0  0  0  0  0  0  0  0
   64.0288   85.8543   31.3361 H   0  0  0  0  0  0  0  0  0  0  0  0
   63.6086   84.6956   30.0295 H   0  0  0  0  0  0  0  0  0  0  0  0
   62.8983   86.3455   30.0295 H   0  0  0  0  0  0  0  0  0  0  0  0
   61.1307   81.1399   35.2637 H   0  0  0  0  0  0  0  0  0  0  0  0
   63.0366   80.2396   36.0897 H   0  0  0  0  0  0  0  0  0  0  0  0
   63.2828   79.2150   34.6350 H   0  0  0  0  0  0  0  0  0  0  0  0
   63.8387   80.9231   34.6350 H   0  0  0  0  0  0  0  0  0  0  0  0
   60.4914   78.9392   34.8652 H   0  0  0  0  0  0  0  0  0  0  0  0
   60.0260   79.8406   33.3827 H   0  0  0  0  0  0  0  0  0  0  0  0
   61.4975   78.8104   33.3827 H   0  0  0  0  0  0  0  0  0  0  0  0
   58.5261   81.3940   32.7836 H   0  0  0  0  0  0  0  0  0  0  0  0
   57.4121   79.5155   31.5994 H   0  0  0  0  0  0  0  0  0  0  0  0
   54.1581   76.4778   30.1249 H   0  0  0  0  0  0  0  0  0  0  0  0
   54.7693   81.1429   27.6457 H   0  0  0  0  0  0  0  0  0  0  0  0
   56.2661   82.6027   26.7138 H   0  0  0  0  0  0  0  0  0  0  0  0
   56.0675   81.4593   25.3427 H   0  0  0  0  0  0  0  0  0  0  0  0
   55.1847   83.0236   25.3427 H   0  0  0  0  0  0  0  0  0  0  0  0
   53.2598   82.5960   28.2098 H   0  0  0  0  0  0  0  0  0  0  0  0
   53.5649   83.5411   26.7130 H   0  0  0  0  0  0  0  0  0  0  0  0
   52.3362   82.2308   26.7130 H   0  0  0  0  0  0  0  0  0  0  0  0
  1  2  1  0
  2  3  2  0
  3  4  1  0
  4  5  2  0
  5  6  1  0
  6  7  2  0
  7  8  1  0
  8  9  1  0
  9 10  1  0
 10 11  1  0
 11 12  2  0
 12 13  1  0
 13 14  1  0
 14 15  1  0
 15 16  1  0
 16 17  1  0
 16 18  1  0
 14 19  1  0
 19 20  2  0
 19 21  1  0
 21 22  2  0
 21 23  1  0
 23 24  1  0
 23 25  1  0
 13 26  2  0
 26 27  1  0
  8 28  2  0
 28 29  1  0
 29 30  2  0
 30 31  1  0
  5 32  1  0
 32 33  1  0
 33 34  1  0
 33 35  1  0
 32  2  1  0
 30  6  1  0
 27 10  2  0
  1 36  1  0
  1 37  1  0
  1 38  1  0
  4 39  1  0
  9 40  1  0
 11 41  1  0
 12 42  1  0
 14 43  1  0
 15 44  1  0
 16 45  1  0
 17 46  1  0
 17 47  1  0
 17 48  1  0
 18 49  1  0
 18 50  1  0
 18 51  1  0
 23 52  1  0
 24 53  1  0
 24 54  1  0
 24 55  1  0
 25 56  1  0
 25 57  1  0
 25 58  1  0
 26 59  1  0
 27 60  1  0
 29 61  1  0
 33 62  1  0
 34 63  1  0
 34 64  1  0
 34 65  1  0
 35 66  1  0
 35 67  1  0
 35 68  1  0
M  END
>  <meeko>  (27) 
{"is_sidechain": false}

>  <smiles>  (27) 
Cc1ncc(-c2nc(Nc3ccc(C(NC(C)C)C(=O)C(=O)C(C)C)cc3)ncc2F)n1C(C)C

>  <vina_score>  (27) 
-8.541

$$$$

     RDKit          3D

 37 39  0  0  0  0  0  0  0  0999 V2000
   50.0070   81.3570   22.2420 N   0  0  0  0  0  0  0  0  0  0  0  0
   51.6520   81.6620   22.1020 S   0  0  0  0  0  0  0  0  0  0  0  0
   51.8100   83.0860   22.2850 O   0  0  0  0  0  0  0  0  0  0  0  0
   52.0810   80.9820   20.9010 O   0  0  0  0  0  0  0  0  0  0  0  0
   52.3030   80.8170   23.5110 C   0  0  0  0  0  0  0  0  0  0  0  0
   52.9170   79.5750   23.3520 C   0  0  0  0  0  0  0  0  0  0  0  0
   53.4540   78.9200   24.4670 C   0  0  0  0  0  0  0  0  0  0  0  0
   53.3970   79.4940   25.7530 C   0  0  0  0  0  0  0  0  0  0  0  0
   53.9610   78.8170   26.9410 C   0  0  0  0  0  0  0  0  0  0  0  0
   53.2950   77.8220   27.6250 C   0  0  0  0  0  0  0  0  0  0  0  0
   53.9540   77.2930   28.7050 C   0  0  0  0  0  0  0  0  0  0  0  0
   55.1720   77.6940   29.1020 N   0  0  0  0  0  0  0  0  0  0  0  0
   55.7680   78.6610   28.3880 C   0  0  0  0  0  0  0  0  0  0  0  0
   57.0020   79.1000   28.7800 N   0  0  0  0  0  0  0  0  0  0  0  0
   57.3840   79.1070   30.1810 C   0  0  0  0  0  0  0  0  0  0  0  0
   58.3840   80.2610   30.2830 C   0  0  0  0  0  0  0  0  0  0  0  0
   58.9350   80.3880   28.8690 C   0  0  0  0  0  0  0  0  0  0  0  0
   57.7100   80.1010   28.0050 C   0  0  0  0  0  0  0  0  0  0  0  0
   55.1940   79.2290   27.3150 N   0  0  0  0  0  0  0  0  0  0  0  0
   52.7730   80.7520   25.8750 C   0  0  0  0  0  0  0  0  0  0  0  0
   52.2350   81.4160   24.7690 C   0  0  0  0  0  0  0  0  0  0  0  0
   49.8430   80.3510   22.2950 H   0  0  0  0  0  0  0  0  0  0  0  0
   49.5030   81.8180   21.4840 H   0  0  0  0  0  0  0  0  0  0  0  0
   52.9791   79.1124   22.3560 H   0  0  0  0  0  0  0  0  0  0  0  0
   53.9302   77.9370   24.3366 H   0  0  0  0  0  0  0  0  0  0  0  0
   52.2962   77.4739   27.3228 H   0  0  0  0  0  0  0  0  0  0  0  0
   53.4571   76.4960   29.2776 H   0  0  0  0  0  0  0  0  0  0  0  0
   56.5102   79.2881   30.8242 H   0  0  0  0  0  0  0  0  0  0  0  0
   57.8084   78.1470   30.5102 H   0  0  0  0  0  0  0  0  0  0  0  0
   57.8815   81.1891   30.5929 H   0  0  0  0  0  0  0  0  0  0  0  0
   59.1693   80.0794   31.0316 H   0  0  0  0  0  0  0  0  0  0  0  0
   59.3227   81.4006   28.6838 H   0  0  0  0  0  0  0  0  0  0  0  0
   59.7796   79.7128   28.6672 H   0  0  0  0  0  0  0  0  0  0  0  0
   57.0981   81.0052   27.8712 H   0  0  0  0  0  0  0  0  0  0  0  0
   57.9615   79.7682   26.9871 H   0  0  0  0  0  0  0  0  0  0  0  0
   52.7077   81.2235   26.8667 H   0  0  0  0  0  0  0  0  0  0  0  0
   51.7623   82.4019   24.8895 H   0  0  0  0  0  0  0  0  0  0  0  0
  1  2  1  0
  2  3  2  0
  2  4  2  0
  2  5  1  0
  5  6  1  0
  6  7  2  0
  7  8  1  0
  8  9  1  0
  9 10  1  0
 10 11  2  0
 11 12  1  0
 12 13  2  0
 13 14  1  0
 14 15  1  0
 15 16  1  0
 16 17  1  0
 17 18  1  0
 13 19  1  0
  8 20  2  0
 20 21  1  0
 21  5  2  0
 19  9  2  0
 18 14  1  0
  1 22  1  0
  1 23  1  0
  6 24  1  0
  7 25  1  0
 10 26  1  0
 11 27  1  0
 15 28  1  0
 15 29  1  0
 16 30  1  0
 16 31  1  0
 17 32  1  0
 17 33  1  0
 18 34  1  0
 18 35  1  0
 20 36  1  0
 21 37  1  0
M  END
>  <meeko>  (28) 
{"is_sidechain": false}

>  <smiles>  (28) 
NS(=O)(=O)c1ccc(-c2ccnc(N3CCCC3)n2)cc1

>  <vina_score>  (28) 
-8.160

$$$$

     RDKit          3D

 37 40  0  0  0  0  0  0  0  0999 V2000
   63.3980   82.0640   30.6460 N   0  0  0  0  0  0  0  0  0  0  0  0
   62.2150   82.8300   31.5660 S   0  0  0  0  0  0  0  0  0  0  0  0
   62.5500   82.6630   32.9600 O   0  0  0  0  0  0  0  0  0  0  0  0
   62.0310   84.1300   30.9620 O   0  0  0  0  0  0  0  0  0  0  0  0
   60.7900   81.8370   31.2120 C   0  0  0  0  0  0  0  0  0  0  0  0
   60.0490   81.2810   32.2570 C   0  0  0  0  0  0  0  0  0  0  0  0
   58.9290   80.4990   31.9620 C   0  0  0  0  0  0  0  0  0  0  0  0
   58.5610   80.2590   30.6330 C   0  0  0  0  0  0  0  0  0  0  0  0
   57.4290   79.4940   30.3300 N   0  0  0  0  0  0  0  0  0  0  0  0
   57.1800   79.3220   29.0740 C   0  0  0  0  0  0  0  0  0  0  0  0
   55.9990   78.6030   28.6590 C   0  0  0  0  0  0  0  0  0  0  0  0
   55.5920   77.4200   29.2720 C   0  0  0  0  0  0  0  0  0  0  0  0
   56.0890   76.7000   30.2700 O   0  0  0  0  0  0  0  0  0  0  0  0
   54.4680   76.9530   28.6400 N   0  0  0  0  0  0  0  0  0  0  0  0
   54.0990   77.7970   27.6280 C   0  0  0  0  0  0  0  0  0  0  0  0
   53.0450   77.7630   26.7120 C   0  0  0  0  0  0  0  0  0  0  0  0
   52.9290   78.8390   25.8020 C   0  0  0  0  0  0  0  0  0  0  0  0
   53.8340   79.9220   25.8270 C   0  0  0  0  0  0  0  0  0  0  0  0
   53.8290   81.0530   25.0270 N   0  0  0  0  0  0  0  0  0  0  0  0
   54.8240   81.8330   25.3940 C   0  0  0  0  0  0  0  0  0  0  0  0
   55.7880   81.2710   26.7010 S   0  0  0  0  0  0  0  0  0  0  0  0
   54.8610   79.8900   26.7600 C   0  0  0  0  0  0  0  0  0  0  0  0
   55.0130   78.8400   27.6370 C   0  0  0  0  0  0  0  0  0  0  0  0
   59.3100   80.8260   29.5980 C   0  0  0  0  0  0  0  0  0  0  0  0
   60.4320   81.6090   29.8810 C   0  0  0  0  0  0  0  0  0  0  0  0
   63.8080   82.6630   29.9310 H   0  0  0  0  0  0  0  0  0  0  0  0
   64.1070   81.6800   31.2730 H   0  0  0  0  0  0  0  0  0  0  0  0
   60.3440   81.4568   33.3020 H   0  0  0  0  0  0  0  0  0  0  0  0
   58.3324   80.0690   32.7800 H   0  0  0  0  0  0  0  0  0  0  0  0
   57.8703   79.7248   28.3182 H   0  0  0  0  0  0  0  0  0  0  0  0
   56.5170   77.2950   30.9090 H   0  0  0  0  0  0  0  0  0  0  0  0
   53.9940   76.0980   28.8940 H   0  0  0  0  0  0  0  0  0  0  0  0
   52.3295   76.9276   26.6990 H   0  0  0  0  0  0  0  0  0  0  0  0
   52.1172   78.8320   25.0597 H   0  0  0  0  0  0  0  0  0  0  0  0
   55.0269   82.7906   24.8923 H   0  0  0  0  0  0  0  0  0  0  0  0
   59.0138   80.6544   28.5526 H   0  0  0  0  0  0  0  0  0  0  0  0
   61.0277   82.0417   29.0638 H   0  0  0  0  0  0  0  0  0  0  0  0
  1  2  1  0
  2  3  2  0
  2  4  2  0
  2  5  1  0
  5  6  1  0
  6  7  2  0
  7  8  1  0
  8  9  1  0
  9 10  2  3
 10 11  1  0
 11 12  2  0
 12 13  1  0
 12 14  1  0
 14 15  1  0
 15 16  2  0
 16 17  1  0
 17 18  2  0
 18 19  1  0
 19 20  2  0
 20 21  1  0
 21 22  1  0
 22 23  2  0
  8 24  2  0
 24 25  1  0
 25  5  2  0
 23 11  1  0
 23 15  1  0
 22 18  1  0
  1 26  1  0
  1 27  1  0
  6 28  1  0
  7 29  1  0
 10 30  1  0
 13 31  1  0
 14 32  1  0
 16 33  1  0
 17 34  1  0
 20 35  1  0
 24 36  1  0
 25 37  1  0
M  END
>  <meeko>  (29) 
{"is_sidechain": false}

>  <smiles>  (29) 
NS(=O)(=O)c1ccc(N=Cc2c(O)[nH]c3ccc4ncsc4c23)cc1

>  <vina_score>  (29) 
-8.171

$$$$

     RDKit          3D

 49 52  0  0  0  0  0  0  0  0999 V2000
   54.7340   85.3860   27.0410 O   0  0  0  0  0  0  0  0  0  0  0  0
   54.9590   84.3000   26.1450 C   0  0  0  0  0  0  0  0  0  0  0  0
   55.9350   83.3320   26.8230 C   0  0  0  0  0  0  0  0  0  0  0  0
   55.6490   81.8830   26.4530 C   0  0  0  0  0  0  0  0  0  0  0  0
   54.2440   81.4640   26.9320 C   0  0  0  0  0  0  0  0  0  0  0  0
   53.7850   80.1990   26.2590 C   0  0  0  0  0  0  0  0  0  0  0  0
   53.0710   80.2170   25.0850 N   0  0  0  0  0  0  0  0  0  0  0  0
   52.7910   79.0040   24.5930 N   0  0  0  0  0  0  0  0  0  0  0  0
   53.3440   78.1730   25.4790 C   0  0  0  0  0  0  0  0  0  0  0  0
   53.9430   78.8540   26.5630 C   0  0  0  0  0  0  0  0  0  0  0  0
   54.6230   78.2820   27.7070 C   0  0  0  0  0  0  0  0  0  0  0  0
   54.0410   77.3040   28.4800 C   0  0  0  0  0  0  0  0  0  0  0  0
   54.8100   76.8430   29.5170 C   0  0  0  0  0  0  0  0  0  0  0  0
   56.0500   77.2930   29.7760 N   0  0  0  0  0  0  0  0  0  0  0  0
   56.5430   78.2280   28.9550 C   0  0  0  0  0  0  0  0  0  0  0  0
   57.8190   78.7340   29.1450 N   0  0  0  0  0  0  0  0  0  0  0  0
   57.9190   80.1330   29.5320 C   0  0  0  0  0  0  0  0  0  0  0  0
   57.8550   80.2320   31.0630 C   0  0  0  0  0  0  0  0  0  0  0  0
   59.3100   80.2760   31.5040 C   0  0  0  0  0  0  0  0  0  0  0  0
   59.9540   81.1540   30.4480 C   0  0  0  0  0  0  0  0  0  0  0  0
   59.2840   80.7300   29.1450 C   0  0  0  0  0  0  0  0  0  0  0  0
   55.8710   78.7430   27.9220 N   0  0  0  0  0  0  0  0  0  0  0  0
   53.2020   82.5940   26.7920 C   0  0  0  0  0  0  0  0  0  0  0  0
   53.6200   83.6540   25.7740 C   0  0  0  0  0  0  0  0  0  0  0  0
   55.5800   85.8530   27.1580 H   0  0  0  0  0  0  0  0  0  0  0  0
   55.4100   84.6329   25.1986 H   0  0  0  0  0  0  0  0  0  0  0  0
   56.9593   83.5831   26.5103 H   0  0  0  0  0  0  0  0  0  0  0  0
   55.8154   83.4351   27.9116 H   0  0  0  0  0  0  0  0  0  0  0  0
   55.7058   81.7716   25.3601 H   0  0  0  0  0  0  0  0  0  0  0  0
   56.3953   81.2397   26.9420 H   0  0  0  0  0  0  0  0  0  0  0  0
   54.3319   81.2571   28.0088 H   0  0  0  0  0  0  0  0  0  0  0  0
   52.7590   81.0230   24.5560 H   0  0  0  0  0  0  0  0  0  0  0  0
   53.3346   77.0778   25.3767 H   0  0  0  0  0  0  0  0  0  0  0  0
   53.0301   76.9192   28.2801 H   0  0  0  0  0  0  0  0  0  0  0  0
   54.3906   76.0644   30.1712 H   0  0  0  0  0  0  0  0  0  0  0  0
   58.3680   78.4490   28.3420 H   0  0  0  0  0  0  0  0  0  0  0  0
   57.1018   80.6690   29.0271 H   0  0  0  0  0  0  0  0  0  0  0  0
   57.3276   81.1466   31.3716 H   0  0  0  0  0  0  0  0  0  0  0  0
   57.3071   79.3913   31.5136 H   0  0  0  0  0  0  0  0  0  0  0  0
   59.4076   80.7229   32.5044 H   0  0  0  0  0  0  0  0  0  0  0  0
   59.7715   79.2807   31.5838 H   0  0  0  0  0  0  0  0  0  0  0  0
   59.7634   82.2172   30.6561 H   0  0  0  0  0  0  0  0  0  0  0  0
   61.0474   81.0383   30.4152 H   0  0  0  0  0  0  0  0  0  0  0  0
   59.1456   81.6009   28.4875 H   0  0  0  0  0  0  0  0  0  0  0  0
   59.8990   79.9986   28.6002 H   0  0  0  0  0  0  0  0  0  0  0  0
   52.2462   82.1544   26.4709 H   0  0  0  0  0  0  0  0  0  0  0  0
   53.1121   83.0882   27.7706 H   0  0  0  0  0  0  0  0  0  0  0  0
   53.7143   83.1810   24.7853 H   0  0  0  0  0  0  0  0  0  0  0  0
   52.8513   84.4407   25.7632 H   0  0  0  0  0  0  0  0  0  0  0  0
  1  2  1  0
  2  3  1  0
  3  4  1  0
  4  5  1  0
  5  6  1  0
  6  7  1  0
  7  8  1  0
  8  9  2  0
  9 10  1  0
 10 11  1  0
 11 12  1  0
 12 13  2  0
 13 14  1  0
 14 15  2  0
 15 16  1  0
 16 17  1  0
 17 18  1  0
 18 19  1  0
 19 20  1  0
 20 21  1  0
 15 22  1  0
  5 23  1  0
 23 24  1  0
 24  2  1  0
 10  6  2  0
 22 11  2  0
 21 17  1  0
  1 25  1  0
  2 26  1  0
  3 27  1  0
  3 28  1  0
  4 29  1  0
  4 30  1  0
  5 31  1  0
  7 32  1  0
  9 33  1  0
 12 34  1  0
 13 35  1  0
 16 36  1  0
 17 37  1  0
 18 38  1  0
 18 39  1  0
 19 40  1  0
 19 41  1  0
 20 42  1  0
 20 43  1  0
 21 44  1  0
 21 45  1  0
 23 46  1  0
 23 47  1  0
 24 48  1  0
 24 49  1  0
M  END
>  <meeko>  (30) 
{"is_sidechain": false}

>  <smiles>  (30) 
OC1CCC(c2[nH]ncc2-c2ccnc(NC3CCCC3)n2)CC1

>  <vina_score>  (30) 
-7.861

$$$$
