
     RDKit          3D

 58 61  0  0  0  0  0  0  0  0999 V2000
   52.4420   75.5590   27.0330 C   0  0  0  0  0  0  0  0  0  0  0  0
   52.4890   76.6630   28.0940 C   0  0  0  0  0  0  0  0  0  0  0  0
   53.9320   77.0250   28.4840 C   0  0  0  0  0  0  0  0  0  0  0  0
   54.7940   76.2480   29.2340 C   0  0  0  0  0  0  0  0  0  0  0  0
   56.0050   76.9080   29.3310 N   0  0  0  0  0  0  0  0  0  0  0  0
   55.8800   78.0960   28.6180 N   0  0  0  0  0  0  0  0  0  0  0  0
   56.8760   79.1370   28.3810 C   0  0  0  0  0  0  0  0  0  0  0  0
   58.1810   78.9130   28.9690 N   0  0  0  0  0  0  0  0  0  0  0  0
   59.1230   79.9780   28.9720 C   0  0  0  0  0  0  0  0  0  0  0  0
   58.7790   80.8900   30.1320 C   0  0  0  0  0  0  0  0  0  0  0  0
   58.4240   80.2460   31.4030 C   0  0  0  0  0  0  0  0  0  0  0  0
   58.0480   81.0660   32.5580 C   0  0  0  0  0  0  0  0  0  0  0  0
   58.0330   82.5230   32.4150 C   0  0  0  0  0  0  0  0  0  0  0  0
   58.3910   83.1610   31.1230 N   0  0  0  0  0  0  0  0  0  0  0  0
   58.3640   84.3930   31.0210 O   0  0  0  0  0  0  0  0  0  0  0  0
   58.7590   82.3440   29.9570 C   0  0  0  0  0  0  0  0  0  0  0  0
   56.5180   80.2590   27.5970 C   0  0  0  0  0  0  0  0  0  0  0  0
   55.1800   80.3140   27.0490 C   0  0  0  0  0  0  0  0  0  0  0  0
   54.7290   81.4200   26.2670 N   0  0  0  0  0  0  0  0  0  0  0  0
   55.6330   82.5330   25.9950 C   0  0  0  0  0  0  0  0  0  0  0  0
   54.9330   83.8450   26.2040 C   0  0  0  0  0  0  0  0  0  0  0  0
   53.5810   83.8950   25.6360 C   0  0  0  0  0  0  0  0  0  0  0  0
   52.7680   82.7880   26.1380 C   0  0  0  0  0  0  0  0  0  0  0  0
   53.4150   81.5630   25.5990 C   0  0  1  0  0  0  0  0  0  0  0  0
   53.4930   81.0600   24.1800 C   0  0  0  0  0  0  0  0  0  0  0  0
   53.1020   79.6450   23.8320 C   0  0  0  0  0  0  0  0  0  0  0  0
   52.7050   78.8830   24.9640 O   0  0  0  0  0  0  0  0  0  0  0  0
   54.2030   79.3160   27.2940 N   0  0  0  0  0  0  0  0  0  0  0  0
   54.6280   78.1550   28.0800 C   0  0  0  0  0  0  0  0  0  0  0  0
   52.4002   74.5771   27.5271 H   0  0  0  0  0  0  0  0  0  0  0  0
   51.5487   75.6918   26.4050 H   0  0  0  0  0  0  0  0  0  0  0  0
   53.3434   75.6154   26.4050 H   0  0  0  0  0  0  0  0  0  0  0  0
   51.9930   77.5602   27.6954 H   0  0  0  0  0  0  0  0  0  0  0  0
   51.9763   76.2921   28.9938 H   0  0  0  0  0  0  0  0  0  0  0  0
   54.5569   75.2701   29.6785 H   0  0  0  0  0  0  0  0  0  0  0  0
   58.4220   77.9980   29.3770 H   0  0  0  0  0  0  0  0  0  0  0  0
   60.1403   79.5787   29.0975 H   0  0  0  0  0  0  0  0  0  0  0  0
   59.0849   80.5304   28.0215 H   0  0  0  0  0  0  0  0  0  0  0  0
   58.4403   79.1494   31.4881 H   0  0  0  0  0  0  0  0  0  0  0  0
   57.7817   80.5950   33.5157 H   0  0  0  0  0  0  0  0  0  0  0  0
   57.7537   83.1514   33.2735 H   0  0  0  0  0  0  0  0  0  0  0  0
   59.2070   84.8970   30.8860 H   0  0  0  0  0  0  0  0  0  0  0  0
   59.0095   82.8068   28.9911 H   0  0  0  0  0  0  0  0  0  0  0  0
   57.2384   81.0687   27.4089 H   0  0  0  0  0  0  0  0  0  0  0  0
   56.4965   82.4717   26.6737 H   0  0  0  0  0  0  0  0  0  0  0  0
   55.9667   82.4716   24.9486 H   0  0  0  0  0  0  0  0  0  0  0  0
   54.8612   84.0307   27.2858 H   0  0  0  0  0  0  0  0  0  0  0  0
   55.5268   84.6102   25.6825 H   0  0  0  0  0  0  0  0  0  0  0  0
   53.1067   84.8472   25.9160 H   0  0  0  0  0  0  0  0  0  0  0  0
   53.6540   83.8121   24.5416 H   0  0  0  0  0  0  0  0  0  0  0  0
   52.7695   82.7745   27.2379 H   0  0  0  0  0  0  0  0  0  0  0  0
   51.7164   82.8721   25.8265 H   0  0  0  0  0  0  0  0  0  0  0  0
   52.5652   80.8986   25.8143 H   0  0  0  0  0  0  0  0  0  0  0  0
   52.8485   81.7187   23.5794 H   0  0  0  0  0  0  0  0  0  0  0  0
   54.5749   81.0665   23.9814 H   0  0  0  0  0  0  0  0  0  0  0  0
   52.2637   79.6781   23.1205 H   0  0  0  0  0  0  0  0  0  0  0  0
   53.9881   79.1559   23.4011 H   0  0  0  0  0  0  0  0  0  0  0  0
   52.6930   79.4650   25.7660 H   0  0  0  0  0  0  0  0  0  0  0  0
  1  2  1  0
  2  3  1  0
  3  4  1  0
  4  5  2  0
  5  6  1  0
  6  7  1  0
  7  8  1  0
  8  9  1  0
  9 10  1  0
 10 11  1  0
 11 12  2  0
 12 13  1  0
 13 14  2  0
 14 15  1  0
 14 16  1  0
  7 17  2  0
 17 18  1  0
 18 19  1  0
 19 20  1  0
 20 21  1  0
 21 22  1  0
 22 23  1  0
 23 24  1  0
 24 25  1  0
 25 26  1  0
 26 27  1  0
 18 28  2  0
 28 29  1  0
 29  3  2  0
 29  6  1  0
 16 10  2  0
 24 19  1  0
  1 30  1  0
  1 31  1  0
  1 32  1  0
  2 33  1  0
  2 34  1  0
  4 35  1  0
  8 36  1  0
  9 37  1  0
  9 38  1  0
 11 39  1  0
 12 40  1  0
 13 41  1  0
 15 42  1  0
 16 43  1  0
 17 44  1  0
 20 45  1  0
 20 46  1  0
 21 47  1  0
 21 48  1  0
 22 49  1  0
 22 50  1  0
 23 51  1  0
 23 52  1  0
 24 53  1  1
 25 54  1  0
 25 55  1  0
 26 56  1  0
 26 57  1  0
 27 58  1  0
M  CHG  1  14   1
M  END
>  <meeko>  (1) 
{"is_sidechain": false}

>  <vina_score>  (1) 
-9.438

>  <rmsd_to_crystal>  (1) 
0.654

$$$$

     RDKit          3D

 58 61  0  0  0  0  0  0  0  0999 V2000
   52.0760   75.3660   26.5200 C   0  0  0  0  0  0  0  0  0  0  0  0
   52.1570   75.7640   27.9980 C   0  0  0  0  0  0  0  0  0  0  0  0
   53.5240   76.3720   28.3560 C   0  0  0  0  0  0  0  0  0  0  0  0
   54.5190   75.7640   29.0970 C   0  0  0  0  0  0  0  0  0  0  0  0
   55.6000   76.6210   29.1640 N   0  0  0  0  0  0  0  0  0  0  0  0
   55.2620   77.7610   28.4410 N   0  0  0  0  0  0  0  0  0  0  0  0
   56.0620   78.9520   28.1730 C   0  0  0  0  0  0  0  0  0  0  0  0
   57.3960   78.9620   28.7380 N   0  0  0  0  0  0  0  0  0  0  0  0
   58.3280   79.9320   28.2770 C   0  0  0  0  0  0  0  0  0  0  0  0
   59.0140   80.5220   29.4930 C   0  0  0  0  0  0  0  0  0  0  0  0
   58.4870   80.1350   30.8080 C   0  0  0  0  0  0  0  0  0  0  0  0
   59.0800   80.6930   32.0270 C   0  0  0  0  0  0  0  0  0  0  0  0
   60.1950   81.6340   31.9020 C   0  0  0  0  0  0  0  0  0  0  0  0
   60.7160   82.0190   30.5660 N   0  0  0  0  0  0  0  0  0  0  0  0
   61.6530   82.8220   30.4830 O   0  0  0  0  0  0  0  0  0  0  0  0
   60.1190   81.4710   29.3390 C   0  0  0  0  0  0  0  0  0  0  0  0
   55.5040   79.9870   27.3850 C   0  0  0  0  0  0  0  0  0  0  0  0
   54.1670   79.8050   26.8620 C   0  0  0  0  0  0  0  0  0  0  0  0
   53.5210   80.8070   26.0770 N   0  0  0  0  0  0  0  0  0  0  0  0
   52.0700   80.7770   25.9150 C   0  0  0  0  0  0  0  0  0  0  0  0
   51.6950   81.0100   24.4790 C   0  0  0  0  0  0  0  0  0  0  0  0
   52.4420   82.0970   23.8370 C   0  0  0  0  0  0  0  0  0  0  0  0
   53.8830   81.8800   23.9670 C   0  0  0  0  0  0  0  0  0  0  0  0
   54.1540   81.9770   25.4260 C   0  0  1  0  0  0  0  0  0  0  0  0
   54.1000   83.1750   26.3380 C   0  0  0  0  0  0  0  0  0  0  0  0
   55.3210   84.0280   26.5780 C   0  0  0  0  0  0  0  0  0  0  0  0
   56.5280   83.4010   26.1640 O   0  0  0  0  0  0  0  0  0  0  0  0
   53.3790   78.6590   27.1370 N   0  0  0  0  0  0  0  0  0  0  0  0
   54.0100   77.5980   27.9260 C   0  0  0  0  0  0  0  0  0  0  0  0
   51.8572   74.2909   26.4413 H   0  0  0  0  0  0  0  0  0  0  0  0
   51.2762   75.9399   26.0290 H   0  0  0  0  0  0  0  0  0  0  0  0
   53.0364   75.5816   26.0290 H   0  0  0  0  0  0  0  0  0  0  0  0
   51.3721   76.5049   28.2100 H   0  0  0  0  0  0  0  0  0  0  0  0
   52.0198   74.8556   28.6029 H   0  0  0  0  0  0  0  0  0  0  0  0
   54.4602   74.7661   29.5560 H   0  0  0  0  0  0  0  0  0  0  0  0
   57.6650   78.2780   29.4600 H   0  0  0  0  0  0  0  0  0  0  0  0
   59.0715   79.4558   27.6210 H   0  0  0  0  0  0  0  0  0  0  0  0
   57.8156   80.7181   27.7029 H   0  0  0  0  0  0  0  0  0  0  0  0
   57.6480   79.4270   30.8782 H   0  0  0  0  0  0  0  0  0  0  0  0
   58.6944   80.4100   33.0176 H   0  0  0  0  0  0  0  0  0  0  0  0
   60.6515   82.0602   32.8075 H   0  0  0  0  0  0  0  0  0  0  0  0
   62.5880   82.4970   30.5230 H   0  0  0  0  0  0  0  0  0  0  0  0
   60.4878   81.7623   28.3445 H   0  0  0  0  0  0  0  0  0  0  0  0
   56.0718   80.9056   27.1756 H   0  0  0  0  0  0  0  0  0  0  0  0
   51.6906   79.7947   26.2332 H   0  0  0  0  0  0  0  0  0  0  0  0
   51.6271   81.5730   26.5316 H   0  0  0  0  0  0  0  0  0  0  0  0
   51.8822   80.0828   23.9176 H   0  0  0  0  0  0  0  0  0  0  0  0
   50.6349   81.3033   24.4701 H   0  0  0  0  0  0  0  0  0  0  0  0
   52.1774   82.1362   22.7700 H   0  0  0  0  0  0  0  0  0  0  0  0
   52.1808   83.0452   24.3296 H   0  0  0  0  0  0  0  0  0  0  0  0
   54.1606   80.8857   23.5870 H   0  0  0  0  0  0  0  0  0  0  0  0
   54.4660   82.6112   23.3878 H   0  0  0  0  0  0  0  0  0  0  0  0
   55.2440   82.0784   25.3183 H   0  0  0  0  0  0  0  0  0  0  0  0
   53.3276   83.8434   25.9299 H   0  0  0  0  0  0  0  0  0  0  0  0
   53.9275   82.7191   27.3241 H   0  0  0  0  0  0  0  0  0  0  0  0
   55.2060   84.9692   26.0204 H   0  0  0  0  0  0  0  0  0  0  0  0
   55.3946   84.1988   27.6622 H   0  0  0  0  0  0  0  0  0  0  0  0
   56.3260   82.4970   25.8140 H   0  0  0  0  0  0  0  0  0  0  0  0
  1  2  1  0
  2  3  1  0
  3  4  1  0
  4  5  2  0
  5  6  1  0
  6  7  1  0
  7  8  1  0
  8  9  1  0
  9 10  1  0
 10 11  1  0
 11 12  2  0
 12 13  1  0
 13 14  2  0
 14 15  1  0
 14 16  1  0
  7 17  2  0
 17 18  1  0
 18 19  1  0
 19 20  1  0
 20 21  1  0
 21 22  1  0
 22 23  1  0
 23 24  1  0
 24 25  1  0
 25 26  1  0
 26 27  1  0
 18 28  2  0
 28 29  1  0
 29  3  2  0
 29  6  1  0
 16 10  2  0
 24 19  1  0
  1 30  1  0
  1 31  1  0
  1 32  1  0
  2 33  1  0
  2 34  1  0
  4 35  1  0
  8 36  1  0
  9 37  1  0
  9 38  1  0
 11 39  1  0
 12 40  1  0
 13 41  1  0
 15 42  1  0
 16 43  1  0
 17 44  1  0
 20 45  1  0
 20 46  1  0
 21 47  1  0
 21 48  1  0
 22 49  1  0
 22 50  1  0
 23 51  1  0
 23 52  1  0
 24 53  1  6
 25 54  1  0
 25 55  1  0
 26 56  1  0
 26 57  1  0
 27 58  1  0
M  CHG  1  14   1
M  END
>  <meeko>  (2) 
{"is_sidechain": false}

>  <vina_score>  (2) 
-8.212

>  <rmsd_to_crystal>  (2) 
2.331

$$$$

     RDKit          3D

 58 61  0  0  0  0  0  0  0  0999 V2000
   52.4940   82.3250   23.7740 C   0  0  0  0  0  0  0  0  0  0  0  0
   52.6100   82.8800   25.1980 C   0  0  0  0  0  0  0  0  0  0  0  0
   54.0040   82.6340   25.8000 C   0  0  0  0  0  0  0  0  0  0  0  0
   55.0010   83.5770   25.9630 C   0  0  0  0  0  0  0  0  0  0  0  0
   56.0820   82.9680   26.5710 N   0  0  0  0  0  0  0  0  0  0  0  0
   55.7320   81.6400   26.7920 N   0  0  0  0  0  0  0  0  0  0  0  0
   56.5030   80.5790   27.4320 C   0  0  0  0  0  0  0  0  0  0  0  0
   57.8220   80.9480   27.9050 N   0  0  0  0  0  0  0  0  0  0  0  0
   58.5990   79.9780   28.5960 C   0  0  0  0  0  0  0  0  0  0  0  0
   59.0820   80.6110   29.8850 C   0  0  0  0  0  0  0  0  0  0  0  0
   58.3890   80.2210   31.1200 C   0  0  0  0  0  0  0  0  0  0  0  0
   58.7820   80.8190   32.3990 C   0  0  0  0  0  0  0  0  0  0  0  0
   59.8660   81.8030   32.4150 C   0  0  0  0  0  0  0  0  0  0  0  0
   60.5550   82.1910   31.1590 N   0  0  0  0  0  0  0  0  0  0  0  0
   61.4640   83.0300   31.1930 O   0  0  0  0  0  0  0  0  0  0  0  0
   60.1600   81.6030   29.8700 C   0  0  0  0  0  0  0  0  0  0  0  0
   55.9210   79.2950   27.5630 C   0  0  0  0  0  0  0  0  0  0  0  0
   54.5750   79.1000   27.0700 C   0  0  0  0  0  0  0  0  0  0  0  0
   53.9220   77.8330   27.1420 N   0  0  0  0  0  0  0  0  0  0  0  0
   53.7680   77.0260   25.9350 C   0  0  0  0  0  0  0  0  0  0  0  0
   52.3740   76.4750   25.8420 C   0  0  0  0  0  0  0  0  0  0  0  0
   51.8620   75.9350   27.1070 C   0  0  0  0  0  0  0  0  0  0  0  0
   51.9550   76.9340   28.1710 C   0  0  0  0  0  0  0  0  0  0  0  0
   53.4130   77.1590   28.3580 C   0  0  1  0  0  0  0  0  0  0  0  0
   54.4640   76.2390   28.9250 C   0  0  0  0  0  0  0  0  0  0  0  0
   55.3380   76.6700   30.0770 C   0  0  0  0  0  0  0  0  0  0  0  0
   56.6400   77.0670   29.6690 O   0  0  0  0  0  0  0  0  0  0  0  0
   53.8310   80.1210   26.4290 N   0  0  0  0  0  0  0  0  0  0  0  0
   54.4580   81.4430   26.3480 C   0  0  0  0  0  0  0  0  0  0  0  0
   52.2691   81.2491   23.8170 H   0  0  0  0  0  0  0  0  0  0  0  0
   51.6857   82.8475   23.2415 H   0  0  0  0  0  0  0  0  0  0  0  0
   53.4440   82.4800   23.2415 H   0  0  0  0  0  0  0  0  0  0  0  0
   52.4196   83.9631   25.1737 H   0  0  0  0  0  0  0  0  0  0  0  0
   51.8717   82.3605   25.8266 H   0  0  0  0  0  0  0  0  0  0  0  0
   54.9437   84.6329   25.6602 H   0  0  0  0  0  0  0  0  0  0  0  0
   58.1900   81.8970   27.7440 H   0  0  0  0  0  0  0  0  0  0  0  0
   57.9832   79.0944   28.8198 H   0  0  0  0  0  0  0  0  0  0  0  0
   59.4520   79.6566   27.9803 H   0  0  0  0  0  0  0  0  0  0  0  0
   57.5760   79.4809   31.0849 H   0  0  0  0  0  0  0  0  0  0  0  0
   58.2715   80.5335   33.3306 H   0  0  0  0  0  0  0  0  0  0  0  0
   60.1729   82.2594   33.3676 H   0  0  0  0  0  0  0  0  0  0  0  0
   62.1960   82.9390   31.8530 H   0  0  0  0  0  0  0  0  0  0  0  0
   60.6543   81.8964   28.9321 H   0  0  0  0  0  0  0  0  0  0  0  0
   56.4776   78.4676   28.0274 H   0  0  0  0  0  0  0  0  0  0  0  0
   53.9688   77.6523   25.0533 H   0  0  0  0  0  0  0  0  0  0  0  0
   54.4788   76.1875   25.9759 H   0  0  0  0  0  0  0  0  0  0  0  0
   51.7035   77.2829   25.5137 H   0  0  0  0  0  0  0  0  0  0  0  0
   52.4084   75.6384   25.1286 H   0  0  0  0  0  0  0  0  0  0  0  0
   50.8093   75.6443   26.9757 H   0  0  0  0  0  0  0  0  0  0  0  0
   52.4671   75.0608   27.3890 H   0  0  0  0  0  0  0  0  0  0  0  0
   51.4548   77.8666   27.8710 H   0  0  0  0  0  0  0  0  0  0  0  0
   51.4654   76.5992   29.0974 H   0  0  0  0  0  0  0  0  0  0  0  0
   53.3107   77.6768   29.3231 H   0  0  0  0  0  0  0  0  0  0  0  0
   53.9387   75.3304   29.2545 H   0  0  0  0  0  0  0  0  0  0  0  0
   55.1824   76.1546   28.0963 H   0  0  0  0  0  0  0  0  0  0  0  0
   54.8558   77.5186   30.5842 H   0  0  0  0  0  0  0  0  0  0  0  0
   55.4528   75.8033   30.7446 H   0  0  0  0  0  0  0  0  0  0  0  0
   56.5680   77.7800   28.9850 H   0  0  0  0  0  0  0  0  0  0  0  0
  1  2  1  0
  2  3  1  0
  3  4  1  0
  4  5  2  0
  5  6  1  0
  6  7  1  0
  7  8  1  0
  8  9  1  0
  9 10  1  0
 10 11  1  0
 11 12  2  0
 12 13  1  0
 13 14  2  0
 14 15  1  0
 14 16  1  0
  7 17  2  0
 17 18  1  0
 18 19  1  0
 19 20  1  0
 20 21  1  0
 21 22  1  0
 22 23  1  0
 23 24  1  0
 24 25  1  0
 25 26  1  0
 26 27  1  0
 18 28  2  0
 28 29  1  0
 29  3  2  0
 29  6  1  0
 16 10  2  0
 24 19  1  0
  1 30  1  0
  1 31  1  0
  1 32  1  0
  2 33  1  0
  2 34  1  0
  4 35  1  0
  8 36  1  0
  9 37  1  0
  9 38  1  0
 11 39  1  0
 12 40  1  0
 13 41  1  0
 15 42  1  0
 16 43  1  0
 17 44  1  0
 20 45  1  0
 20 46  1  0
 21 47  1  0
 21 48  1  0
 22 49  1  0
 22 50  1  0
 23 51  1  0
 23 52  1  0
 24 53  1  1
 25 54  1  0
 25 55  1  0
 26 56  1  0
 26 57  1  0
 27 58  1  0
M  CHG  1  14   1
M  END
>  <meeko>  (3) 
{"is_sidechain": false}

>  <vina_score>  (3) 
-7.279

>  <rmsd_to_crystal>  (3) 
4.889

$$$$
